
#======================================================================
# CRYSTAL DATA
#----------------------------------------------------------------------
data_VESTA_phase_1

_chemical_name_common                  'In2Te3\(0\0\-1)\(2)                   '
_cell_length_a                         8.647408
_cell_length_b                         8.663468
_cell_length_c                         37.602699
_cell_angle_alpha                      90.000000
_cell_angle_beta                       90.000000
_cell_angle_gamma                      60.041607
_cell_volume                           2440.671348
_space_group_name_H-M_alt              'P 1'
_space_group_IT_number                 1

loop_
_space_group_symop_operation_xyz
   'x, y, z'

loop_
   _atom_site_label
   _atom_site_occupancy
   _atom_site_fract_x
   _atom_site_fract_y
   _atom_site_fract_z
   _atom_site_adp_type
   _atom_site_U_iso_or_equiv
   _atom_site_type_symbol
   In1        1.0     0.189768     0.133807     0.692717    Uiso  ? In
   In2        1.0     0.022953     0.457274     0.413140    Uiso  ? In
   In3        1.0     0.357661     0.293815     0.572481    Uiso  ? In
   In4        1.0     0.188440     0.615712     0.292660    Uiso  ? In
   In5        1.0     0.189772     0.633805     0.692715    Uiso  ? In
   In6        1.0     0.022918     0.957243     0.413134    Uiso  ? In
   In7        1.0     0.357743     0.793790     0.572485    Uiso  ? In
   In8        1.0     0.188245     0.115678     0.292653    Uiso  ? In
   In9        1.0     0.689779     0.133827     0.692710    Uiso  ? In
   In10       1.0     0.522983     0.457306     0.413139    Uiso  ? In
   In11       1.0     0.857714     0.293786     0.572471    Uiso  ? In
   In12       1.0     0.688369     0.615808     0.292667    Uiso  ? In
   In13       1.0     0.689769     0.633828     0.692716    Uiso  ? In
   In14       1.0     0.522940     0.957308     0.413132    Uiso  ? In
   In15       1.0     0.857681     0.793826     0.572483    Uiso  ? In
   In16       1.0     0.688286     0.115763     0.292603    Uiso  ? In
   Te1        1.0     0.023383     0.966661     0.729812    Uiso  ? Te
   Te2        1.0     0.856442     0.290111     0.450175    Uiso  ? Te
   Te3        1.0     0.191306     0.127843     0.619759    Uiso  ? Te
   Te4        1.0     0.022060     0.450189     0.340157    Uiso  ? Te
   Te5        1.0     0.024074     0.960871     0.532646    Uiso  ? Te
   Te6        1.0     0.854777     0.283120     0.252878    Uiso  ? Te
   Te7        1.0     0.023377     0.466680     0.729815    Uiso  ? Te
   Te8        1.0     0.856377     0.790146     0.450180    Uiso  ? Te
   Te9        1.0     0.191353     0.627854     0.619754    Uiso  ? Te
   Te10       1.0     0.021892     0.950202     0.340149    Uiso  ? Te
   Te11       1.0     0.023984     0.460957     0.532640    Uiso  ? Te
   Te12       1.0     0.854940     0.782959     0.252880    Uiso  ? Te
   Te13       1.0     0.523390     0.966697     0.729810    Uiso  ? Te
   Te14       1.0     0.356421     0.290175     0.450171    Uiso  ? Te
   Te15       1.0     0.691316     0.127872     0.619752    Uiso  ? Te
   Te16       1.0     0.522135     0.450130     0.340154    Uiso  ? Te
   Te17       1.0     0.523992     0.960946     0.532642    Uiso  ? Te
   Te18       1.0     0.354697     0.283033     0.252883    Uiso  ? Te
   Te19       1.0     0.523382     0.466684     0.729812    Uiso  ? Te
   Te20       1.0     0.356395     0.790182     0.450168    Uiso  ? Te
   Te21       1.0     0.691372     0.627821     0.619755    Uiso  ? Te
   Te22       1.0     0.521923     0.950324     0.340149    Uiso  ? Te
   Te23       1.0     0.524001     0.460917     0.532642    Uiso  ? Te
   Te24       1.0     0.354893     0.783001     0.252882    Uiso  ? Te
