
#======================================================================
# CRYSTAL DATA
#----------------------------------------------------------------------
data_VESTA_phase_1

_chemical_name_common                  'mono_In2S3\(0\0\1)                    '
_cell_length_a                         7.798738
_cell_length_b                         7.798419
_cell_length_c                         36.594898
_cell_angle_alpha                      90.000000
_cell_angle_beta                       90.000000
_cell_angle_gamma                      59.986820
_cell_volume                           1927.189429
_space_group_name_H-M_alt              'P 1'
_space_group_IT_number                 1

loop_
_space_group_symop_operation_xyz
   'x, y, z'

loop_
   _atom_site_label
   _atom_site_occupancy
   _atom_site_fract_x
   _atom_site_fract_y
   _atom_site_fract_z
   _atom_site_adp_type
   _atom_site_U_iso_or_equiv
   _atom_site_type_symbol
   In1        1.0     0.496315     0.556095     0.341811    Uiso  ? In
   In2        1.0     0.827925     0.381358     0.594209    Uiso  ? In
   In3        1.0     0.328599     0.885531     0.451834    Uiso  ? In
   In4        1.0     0.659828     0.710515     0.704315    Uiso  ? In
   In5        1.0     0.496315     0.056095     0.341812    Uiso  ? In
   In6        1.0     0.827926     0.881356     0.594211    Uiso  ? In
   In7        1.0     0.328598     0.385531     0.451834    Uiso  ? In
   In8        1.0     0.659829     0.210513     0.704315    Uiso  ? In
   In9        1.0     0.996314     0.056095     0.341812    Uiso  ? In
   In10       1.0     0.327926     0.881356     0.594212    Uiso  ? In
   In11       1.0     0.828599     0.385531     0.451834    Uiso  ? In
   In12       1.0     0.159830     0.210513     0.704315    Uiso  ? In
   In13       1.0     0.996315     0.556096     0.341812    Uiso  ? In
   In14       1.0     0.327925     0.381358     0.594210    Uiso  ? In
   In15       1.0     0.828598     0.885531     0.451834    Uiso  ? In
   In16       1.0     0.159829     0.710515     0.704315    Uiso  ? In
   S1         1.0     0.662934     0.222619     0.309757    Uiso  ? S
   S2         1.0     0.994549     0.047951     0.562388    Uiso  ? S
   S3         1.0     0.495425     0.552956     0.407940    Uiso  ? S
   S4         1.0     0.826725     0.377876     0.660319    Uiso  ? S
   S5         1.0     0.661952     0.218820     0.485398    Uiso  ? S
   S6         1.0     0.993205     0.043955     0.737997    Uiso  ? S
   S7         1.0     0.662933     0.722618     0.309757    Uiso  ? S
   S8         1.0     0.994551     0.547947     0.562389    Uiso  ? S
   S9         1.0     0.495425     0.052956     0.407939    Uiso  ? S
   S10        1.0     0.826725     0.877876     0.660318    Uiso  ? S
   S11        1.0     0.661952     0.718819     0.485398    Uiso  ? S
   S12        1.0     0.993206     0.543954     0.737997    Uiso  ? S
   S13        1.0     0.162935     0.722618     0.309757    Uiso  ? S
   S14        1.0     0.494552     0.547947     0.562388    Uiso  ? S
   S15        1.0     0.995425     0.052956     0.407940    Uiso  ? S
   S16        1.0     0.326725     0.877876     0.660317    Uiso  ? S
   S17        1.0     0.161952     0.718820     0.485398    Uiso  ? S
   S18        1.0     0.493206     0.543954     0.737997    Uiso  ? S
   S19        1.0     0.162934     0.222618     0.309757    Uiso  ? S
   S20        1.0     0.494550     0.047950     0.562388    Uiso  ? S
   S21        1.0     0.995425     0.552956     0.407939    Uiso  ? S
   S22        1.0     0.326725     0.377876     0.660319    Uiso  ? S
   S23        1.0     0.161952     0.218820     0.485398    Uiso  ? S
   S24        1.0     0.493205     0.043955     0.737997    Uiso  ? S
