
#======================================================================
# CRYSTAL DATA
#----------------------------------------------------------------------
data_VESTA_phase_1

_chemical_name_common                  'mono_In2S3\(0\0\1)\(2)                '
_cell_length_a                         7.799825
_cell_length_b                         7.799708
_cell_length_c                         47.756500
_cell_angle_alpha                      90.000000
_cell_angle_beta                       90.000000
_cell_angle_gamma                      60.001080
_cell_volume                           2516.118145
_space_group_name_H-M_alt              'P 1'
_space_group_IT_number                 1

loop_
_space_group_symop_operation_xyz
   'x, y, z'

loop_
   _atom_site_label
   _atom_site_occupancy
   _atom_site_fract_x
   _atom_site_fract_y
   _atom_site_fract_z
   _atom_site_adp_type
   _atom_site_U_iso_or_equiv
   _atom_site_type_symbol
   In1        1.0     0.487123     0.507840     0.253873    Uiso  ? In
   In2        1.0     0.828201     0.336758     0.446721    Uiso  ? In
   In3        1.0     0.173116     0.163384     0.639479    Uiso  ? In
   In4        1.0     0.324121     0.839124     0.338098    Uiso  ? In
   In5        1.0     0.668808     0.665959     0.530841    Uiso  ? In
   In6        1.0     0.010799     0.494439     0.723849    Uiso  ? In
   In7        1.0     0.487123     0.007839     0.253873    Uiso  ? In
   In8        1.0     0.828200     0.836759     0.446721    Uiso  ? In
   In9        1.0     0.173116     0.663386     0.639479    Uiso  ? In
   In10       1.0     0.324122     0.339124     0.338098    Uiso  ? In
   In11       1.0     0.668808     0.165960     0.530841    Uiso  ? In
   In12       1.0     0.010796     0.994445     0.723849    Uiso  ? In
   In13       1.0     0.987119     0.007842     0.253873    Uiso  ? In
   In14       1.0     0.328200     0.836758     0.446721    Uiso  ? In
   In15       1.0     0.673116     0.663385     0.639479    Uiso  ? In
   In16       1.0     0.824114     0.339128     0.338099    Uiso  ? In
   In17       1.0     0.168809     0.165958     0.530842    Uiso  ? In
   In18       1.0     0.510798     0.994443     0.723849    Uiso  ? In
   In19       1.0     0.987120     0.507842     0.253873    Uiso  ? In
   In20       1.0     0.328200     0.336758     0.446721    Uiso  ? In
   In21       1.0     0.673115     0.163385     0.639479    Uiso  ? In
   In22       1.0     0.824114     0.839128     0.338099    Uiso  ? In
   In23       1.0     0.168807     0.665960     0.530842    Uiso  ? In
   In24       1.0     0.510800     0.494439     0.723849    Uiso  ? In
   S1         1.0     0.653878     0.174457     0.229438    Uiso  ? S
   S2         1.0     0.994964     0.003372     0.422572    Uiso  ? S
   S3         1.0     0.339803     0.830049     0.615325    Uiso  ? S
   S4         1.0     0.490075     0.506179     0.304698    Uiso  ? S
   S5         1.0     0.834175     0.333370     0.497532    Uiso  ? S
   S6         1.0     0.176689     0.161517     0.690305    Uiso  ? S
   S7         1.0     0.657527     0.172417     0.363993    Uiso  ? S
   S8         1.0     0.002155     0.999279     0.556765    Uiso  ? S
   S9         1.0     0.344064     0.827811     0.749849    Uiso  ? S
   S10        1.0     0.653879     0.674456     0.229438    Uiso  ? S
   S11        1.0     0.994964     0.503372     0.422572    Uiso  ? S
   S12        1.0     0.339801     0.330050     0.615326    Uiso  ? S
   S13        1.0     0.490074     0.006180     0.304698    Uiso  ? S
   S14        1.0     0.834178     0.833367     0.497532    Uiso  ? S
   S15        1.0     0.176686     0.661518     0.690305    Uiso  ? S
   S16        1.0     0.657526     0.672416     0.363993    Uiso  ? S
   S17        1.0     0.002155     0.499279     0.556765    Uiso  ? S
   S18        1.0     0.344065     0.327808     0.749850    Uiso  ? S
   S19        1.0     0.153885     0.674453     0.229438    Uiso  ? S
   S20        1.0     0.494965     0.503372     0.422572    Uiso  ? S
   S21        1.0     0.839802     0.330049     0.615326    Uiso  ? S
   S22        1.0     0.990099     0.006168     0.304698    Uiso  ? S
   S23        1.0     0.334182     0.833367     0.497532    Uiso  ? S
   S24        1.0     0.676688     0.661520     0.690305    Uiso  ? S
   S25        1.0     0.157528     0.672414     0.363992    Uiso  ? S
   S26        1.0     0.502154     0.499281     0.556765    Uiso  ? S
   S27        1.0     0.844065     0.327809     0.749851    Uiso  ? S
   S28        1.0     0.153884     0.174453     0.229438    Uiso  ? S
   S29        1.0     0.494964     0.003371     0.422572    Uiso  ? S
   S30        1.0     0.839803     0.830049     0.615325    Uiso  ? S
   S31        1.0     0.990098     0.506167     0.304698    Uiso  ? S
   S32        1.0     0.334182     0.333366     0.497532    Uiso  ? S
   S33        1.0     0.676691     0.161514     0.690305    Uiso  ? S
   S34        1.0     0.157528     0.172416     0.363991    Uiso  ? S
   S35        1.0     0.502155     0.999279     0.556765    Uiso  ? S
   S36        1.0     0.844063     0.827809     0.749849    Uiso  ? S
