
#======================================================================
# CRYSTAL DATA
#----------------------------------------------------------------------
data_VESTA_phase_1

_chemical_name_common                  'In2Te3\trilayer                       '
_cell_length_a                         8.691183
_cell_length_b                         8.694159
_cell_length_c                         47.407902
_cell_angle_alpha                      90.000000
_cell_angle_beta                       90.000000
_cell_angle_gamma                      59.882248
_cell_volume                           3098.641163
_space_group_name_H-M_alt              'P 1'
_space_group_IT_number                 1

loop_
_space_group_symop_operation_xyz
   'x, y, z'

loop_
   _atom_site_label
   _atom_site_occupancy
   _atom_site_fract_x
   _atom_site_fract_y
   _atom_site_fract_z
   _atom_site_adp_type
   _atom_site_U_iso_or_equiv
   _atom_site_type_symbol
   In1        1.0     0.887638     0.417186     0.357910    Uiso  ? In
   In2        1.0     0.063048     0.585758     0.262276    Uiso  ? In
   In3        1.0     0.887657     0.917177     0.357910    Uiso  ? In
   In4        1.0     0.063046     0.085750     0.262274    Uiso  ? In
   In5        1.0     0.387657     0.417179     0.357911    Uiso  ? In
   In6        1.0     0.563055     0.585753     0.262271    Uiso  ? In
   In7        1.0     0.387655     0.917176     0.357910    Uiso  ? In
   In8        1.0     0.563031     0.085760     0.262275    Uiso  ? In
   In9        1.0     0.206278     0.246487     0.573968    Uiso  ? In
   In10       1.0     0.385112     0.417689     0.478819    Uiso  ? In
   In11       1.0     0.206265     0.746476     0.573965    Uiso  ? In
   In12       1.0     0.385112     0.917685     0.478820    Uiso  ? In
   In13       1.0     0.706280     0.246484     0.573966    Uiso  ? In
   In14       1.0     0.885112     0.417689     0.478819    Uiso  ? In
   In15       1.0     0.706264     0.746479     0.573964    Uiso  ? In
   In16       1.0     0.885116     0.917689     0.478818    Uiso  ? In
   In17       1.0     0.032177     0.582186     0.790019    Uiso  ? In
   In18       1.0     0.205492     0.748859     0.694767    Uiso  ? In
   In19       1.0     0.032182     0.082184     0.790020    Uiso  ? In
   In20       1.0     0.205488     0.248857     0.694768    Uiso  ? In
   In21       1.0     0.532177     0.582186     0.790020    Uiso  ? In
   In22       1.0     0.705493     0.748856     0.694767    Uiso  ? In
   In23       1.0     0.532183     0.082184     0.790020    Uiso  ? In
   In24       1.0     0.705490     0.248853     0.694768    Uiso  ? In
   Te1        1.0     0.894629     0.418840     0.299792    Uiso  ? Te
   Te2        1.0     0.729298     0.252195     0.230659    Uiso  ? Te
   Te3        1.0     0.894625     0.918848     0.299793    Uiso  ? Te
   Te4        1.0     0.729301     0.752212     0.230659    Uiso  ? Te
   Te5        1.0     0.221182     0.250685     0.386895    Uiso  ? Te
   Te6        1.0     0.394635     0.418845     0.299793    Uiso  ? Te
   Te7        1.0     0.229288     0.252212     0.230659    Uiso  ? Te
   Te8        1.0     0.221194     0.750681     0.386899    Uiso  ? Te
   Te9        1.0     0.394637     0.918824     0.299792    Uiso  ? Te
   Te10       1.0     0.229298     0.752202     0.230659    Uiso  ? Te
   Te11       1.0     0.721193     0.250680     0.386899    Uiso  ? Te
   Te12       1.0     0.721191     0.750684     0.386899    Uiso  ? Te
   Te13       1.0     0.040022     0.080070     0.602955    Uiso  ? Te
   Te14       1.0     0.216160     0.250326     0.515855    Uiso  ? Te
   Te15       1.0     0.051797     0.084129     0.447124    Uiso  ? Te
   Te16       1.0     0.039994     0.580080     0.602957    Uiso  ? Te
   Te17       1.0     0.216155     0.750328     0.515854    Uiso  ? Te
   Te18       1.0     0.051796     0.584127     0.447123    Uiso  ? Te
   Te19       1.0     0.540023     0.080068     0.602956    Uiso  ? Te
   Te20       1.0     0.716156     0.250325     0.515855    Uiso  ? Te
   Te21       1.0     0.551788     0.084129     0.447123    Uiso  ? Te
   Te22       1.0     0.539999     0.580079     0.602957    Uiso  ? Te
   Te23       1.0     0.716163     0.750330     0.515854    Uiso  ? Te
   Te24       1.0     0.551796     0.584125     0.447123    Uiso  ? Te
   Te25       1.0     0.865915     0.415663     0.819181    Uiso  ? Te
   Te26       1.0     0.037831     0.582723     0.732057    Uiso  ? Te
   Te27       1.0     0.872155     0.415121     0.663160    Uiso  ? Te
   Te28       1.0     0.865923     0.915661     0.819182    Uiso  ? Te
   Te29       1.0     0.037835     0.082726     0.732058    Uiso  ? Te
   Te30       1.0     0.872158     0.915123     0.663160    Uiso  ? Te
   Te31       1.0     0.365915     0.415663     0.819181    Uiso  ? Te
   Te32       1.0     0.537830     0.582722     0.732057    Uiso  ? Te
   Te33       1.0     0.372156     0.415122     0.663160    Uiso  ? Te
   Te34       1.0     0.365922     0.915661     0.819182    Uiso  ? Te
   Te35       1.0     0.537834     0.082726     0.732058    Uiso  ? Te
   Te36       1.0     0.372159     0.915123     0.663161    Uiso  ? Te
