#======================================================================

# CRYSTAL DATA

#----------------------------------------------------------------------

data_VESTA_phase_1


_chemical_name_common                  'S_bi_O_dn                             '
_cell_length_a                         13.50820
_cell_length_b                         7.95345
_cell_length_c                         36.59490
_cell_angle_alpha                      90
_cell_angle_beta                       90
_cell_angle_gamma                      90.00265
_space_group_name_H-M_alt              'P 1'
_space_group_IT_number                 1

loop_
_space_group_symop_operation_xyz
   'x, y, z'

loop_
   _atom_site_label
   _atom_site_occupancy
   _atom_site_fract_x
   _atom_site_fract_y
   _atom_site_fract_z
   _atom_site_adp_type
   _atom_site_B_iso_or_equiv
   _atom_site_type_symbol
   In1        1.0     0.015158      0.527875      0.344176     Biso  1.000000 In
   In2        1.0     0.515075      0.027875      0.343678     Biso  1.000000 In
   In3        1.0     0.095828      0.280518      0.595811     Biso  1.000000 In
   In4        1.0     0.595694      0.778003      0.591682     Biso  1.000000 In
   In5        1.0     0.103097      0.777695      0.453400     Biso  1.000000 In
   In6        1.0     0.602477      0.277665      0.452608     Biso  1.000000 In
   In7        1.0     0.213505      0.527009      0.704615     Biso  1.000000 In
   In8        1.0     0.695241      0.027038      0.701204     Biso  1.000000 In
   In9        1.0     0.265146      0.777880      0.343981     Biso  1.000000 In
   In10       1.0     0.765262      0.277848      0.343779     Biso  1.000000 In
   In11       1.0     0.345855      0.527429      0.593271     Biso  1.000000 In
   In12       1.0     0.845971      0.027429      0.588539     Biso  1.000000 In
   In13       1.0     0.352749      0.027647      0.452957     Biso  1.000000 In
   In14       1.0     0.853003      0.527681      0.452896     Biso  1.000000 In
   In15       1.0     0.450626      0.781864      0.702140     Biso  1.000000 In
   In16       1.0     0.938515      0.270955      0.696197     Biso  1.000000 In
   In17       1.0     0.015202      0.027864      0.344125     Biso  1.000000 In
   In18       1.0     0.515110      0.527873      0.343674     Biso  1.000000 In
   In19       1.0     0.095830      0.774437      0.595810     Biso  1.000000 In
   In20       1.0     0.595708      0.276850      0.591678     Biso  1.000000 In
   In21       1.0     0.103096      0.277641      0.453399     Biso  1.000000 In
   In22       1.0     0.602476      0.777647      0.452610     Biso  1.000000 In
   In23       1.0     0.196265      0.027057      0.705871     Biso  1.000000 In
   In24       1.0     0.694678      0.527061      0.700714     Biso  1.000000 In
   In25       1.0     0.265144      0.277895      0.343981     Biso  1.000000 In
   In26       1.0     0.765260      0.777846      0.343779     Biso  1.000000 In
   In27       1.0     0.346956      0.027439      0.593827     Biso  1.000000 In
   In28       1.0     0.844851      0.527449      0.589164     Biso  1.000000 In
   In29       1.0     0.352703      0.527646      0.452915     Biso  1.000000 In
   In30       1.0     0.852870      0.027672      0.452706     Biso  1.000000 In
   In31       1.0     0.450633      0.272374      0.702130     Biso  1.000000 In
   In32       1.0     0.938518      0.783186      0.696178     Biso  1.000000 In
   S1         1.0     0.432934      0.777851      0.313263     Biso  1.000000 S
   S2         1.0     0.933533      0.277895      0.313511     Biso  1.000000 S
   S3         1.0     0.020087      0.027463      0.564176     Biso  1.000000 S
   S4         1.0     0.513135      0.527424      0.562092     Biso  1.000000 S
   S5         1.0     0.018681      0.527722      0.409987     Biso  1.000000 S
   S6         1.0     0.518291      0.027713      0.409475     Biso  1.000000 S
   S7         1.0     0.109482      0.285655      0.661657     Biso  1.000000 S
   S8         1.0     0.609186      0.779132      0.657217     Biso  1.000000 S
   S9         1.0     0.435168      0.777560      0.485669     Biso  1.000000 S
   S10        1.0     0.935126      0.277361      0.485925     Biso  1.000000 S
   S11        1.0     0.021909      0.027072      0.733078     Biso  1.000000 S
   S12        1.0     0.530298      0.527112      0.734357     Biso  1.000000 S
   S13        1.0     0.183024      0.527876      0.313544     Biso  1.000000 S
   S14        1.0     0.683258      0.027842      0.313277     Biso  1.000000 S
   S15        1.0     0.262642      0.277000      0.564254     Biso  1.000000 S
   S16        1.0     0.762406      0.777587      0.559682     Biso  1.000000 S
   S17        1.0     0.268331      0.777722      0.409768     Biso  1.000000 S
   S18        1.0     0.768698      0.277840      0.409572     Biso  1.000000 S
   S19        1.0     0.364047      0.527171      0.658815     Biso  1.000000 S
   S20        1.0     0.854912      0.027128      0.654496     Biso  1.000000 S
   S21        1.0     0.185657      0.527665      0.486034     Biso  1.000000 S
   S22        1.0     0.684864      0.027654      0.485321     Biso  1.000000 S
   S23        1.0     0.288363      0.269566      0.736986     Biso  1.000000 S
   S24        1.0     0.779054      0.777136      0.732676     Biso  1.000000 S
   S25        1.0     0.432933      0.277880      0.313262     Biso  1.000000 S
   S26        1.0     0.933529      0.777823      0.313509     Biso  1.000000 S
   S27        1.0     0.017566      0.527462      0.563051     Biso  1.000000 S
   S28        1.0     0.512841      0.027423      0.561795     Biso  1.000000 S
   S29        1.0     0.018751      0.027717      0.409929     Biso  1.000000 S
   S30        1.0     0.518327      0.527715      0.409473     Biso  1.000000 S
   S31        1.0     0.109506      0.768612      0.661651     Biso  1.000000 S
   S32        1.0     0.609199      0.275176      0.657213     Biso  1.000000 S
   S33        1.0     0.435169      0.277735      0.485669     Biso  1.000000 S
   S34        1.0     0.935127      0.777988      0.485927     Biso  1.000000 S
   S35        1.0     0.069848      0.527106      0.748767     Biso  1.000000 S
   S36        1.0     0.533470      0.027123      0.735568     Biso  1.000000 S
   S37        1.0     0.183095      0.027874      0.313519     Biso  1.000000 S
   S38        1.0     0.683275      0.527841      0.313267     Biso  1.000000 S
   S39        1.0     0.262648      0.777856      0.564255     Biso  1.000000 S
   S40        1.0     0.762419      0.277276      0.559682     Biso  1.000000 S
   S41        1.0     0.268331      0.277699      0.409768     Biso  1.000000 S
   S42        1.0     0.768696      0.777592      0.409572     Biso  1.000000 S
   S43        1.0     0.356629      0.027176      0.659341     Biso  1.000000 S
   S44        1.0     0.852722      0.527135      0.654727     Biso  1.000000 S
   S45        1.0     0.185683      0.027666      0.486029     Biso  1.000000 S
   S46        1.0     0.684867      0.527652      0.485364     Biso  1.000000 S
   S47        1.0     0.288345      0.784562      0.736983     Biso  1.000000 S
   S48        1.0     0.779034      0.277002      0.732677     Biso  1.000000 S
   O1         1.0     0.972452      0.527066      0.721856     Biso  1.000000 O
