#======================================================================

# CRYSTAL DATA

#----------------------------------------------------------------------

data_VESTA_phase_1


_chemical_name_common                  'Se_bi_O_dn                            '
_cell_length_a                         14.04400
_cell_length_b                         8.27050
_cell_length_c                         40.00000
_cell_angle_alpha                      90
_cell_angle_beta                       90
_cell_angle_gamma                      90
_space_group_name_H-M_alt              'P 1'
_space_group_IT_number                 1

loop_
_space_group_symop_operation_xyz
   'x, y, z'

loop_
   _atom_site_label
   _atom_site_occupancy
   _atom_site_fract_x
   _atom_site_fract_y
   _atom_site_fract_z
   _atom_site_adp_type
   _atom_site_B_iso_or_equiv
   _atom_site_type_symbol
   Se1        1.0     0.231798      0.998789      0.269226     Biso  1.000000 Se
   Se2        1.0     0.697201      0.499326      0.257957     Biso  1.000000 Se
   Se3        1.0     0.157409      0.246076      0.345496     Biso  1.000000 Se
   Se4        1.0     0.655819      0.742701      0.341269     Biso  1.000000 Se
   Se5        1.0     0.257267      0.999601      0.438783     Biso  1.000000 Se
   Se6        1.0     0.751910      0.499460      0.437768     Biso  1.000000 Se
   Se7        1.0     0.086102      0.000033      0.509124     Biso  1.000000 Se
   Se8        1.0     0.584880      0.500091      0.508479     Biso  1.000000 Se
   Se9        1.0     0.001690      0.250599      0.582781     Biso  1.000000 Se
   Se10       1.0     0.502011      0.750457      0.582808     Biso  1.000000 Se
   Se11       1.0     0.088989      0.001413      0.676911     Biso  1.000000 Se
   Se12       1.0     0.589470      0.501462      0.676820     Biso  1.000000 Se
   Se13       1.0     0.478550      0.755200      0.267877     Biso  1.000000 Se
   Se14       1.0     0.987437      0.251082      0.271873     Biso  1.000000 Se
   Se15       1.0     0.411545      0.999095      0.343107     Biso  1.000000 Se
   Se16       1.0     0.916629      0.499111      0.348468     Biso  1.000000 Se
   Se17       1.0     0.007623      0.248326      0.441014     Biso  1.000000 Se
   Se18       1.0     0.507179      0.750590      0.436533     Biso  1.000000 Se
   Se19       1.0     0.335712      0.750005      0.508777     Biso  1.000000 Se
   Se20       1.0     0.835279      0.249791      0.508462     Biso  1.000000 Se
   Se21       1.0     0.252098      0.000335      0.583061     Biso  1.000000 Se
   Se22       1.0     0.751646      0.500608      0.582511     Biso  1.000000 Se
   Se23       1.0     0.339426      0.751563      0.677133     Biso  1.000000 Se
   Se24       1.0     0.838928      0.251924      0.676740     Biso  1.000000 Se
   Se25       1.0     0.237695      0.499124      0.270454     Biso  1.000000 Se
   Se26       1.0     0.746720      0.999070      0.271484     Biso  1.000000 Se
   Se27       1.0     0.157449      0.752204      0.345536     Biso  1.000000 Se
   Se28       1.0     0.655897      0.255737      0.341258     Biso  1.000000 Se
   Se29       1.0     0.256873      0.499493      0.438676     Biso  1.000000 Se
   Se30       1.0     0.750190      0.999511      0.436417     Biso  1.000000 Se
   Se31       1.0     0.085953      0.500032      0.509051     Biso  1.000000 Se
   Se32       1.0     0.584923      0.000085      0.508485     Biso  1.000000 Se
   Se33       1.0     0.001698      0.750248      0.582779     Biso  1.000000 Se
   Se34       1.0     0.502016      0.250434      0.582805     Biso  1.000000 Se
   Se35       1.0     0.088961      0.501447      0.676921     Biso  1.000000 Se
   Se36       1.0     0.589387      0.001463      0.676838     Biso  1.000000 Se
   Se37       1.0     0.478566      0.243016      0.267859     Biso  1.000000 Se
   Se38       1.0     0.987380      0.746918      0.271874     Biso  1.000000 Se
   Se39       1.0     0.401183      0.498846      0.344172     Biso  1.000000 Se
   Se40       1.0     0.910375      0.999055      0.347561     Biso  1.000000 Se
   Se41       1.0     0.007562      0.751039      0.441025     Biso  1.000000 Se
   Se42       1.0     0.507174      0.248419      0.436530     Biso  1.000000 Se
   Se43       1.0     0.335725      0.250192      0.508779     Biso  1.000000 Se
   Se44       1.0     0.835270      0.750505      0.508456     Biso  1.000000 Se
   Se45       1.0     0.252044      0.500288      0.583045     Biso  1.000000 Se
   Se46       1.0     0.751606      0.000562      0.582572     Biso  1.000000 Se
   Se47       1.0     0.339436      0.251671      0.677126     Biso  1.000000 Se
   Se48       1.0     0.838947      0.751837      0.676737     Biso  1.000000 Se
   In1        1.0     0.316191      0.755287      0.302899     Biso  1.000000 In
   In2        1.0     0.827465      0.249977      0.308062     Biso  1.000000 In
   In3        1.0     0.174039      0.249290      0.408646     Biso  1.000000 In
   In4        1.0     0.674224      0.746316      0.404696     Biso  1.000000 In
   In5        1.0     0.417854      0.000110      0.541685     Biso  1.000000 In
   In6        1.0     0.917488      0.500149      0.541524     Biso  1.000000 In
   In7        1.0     0.007195      0.251456      0.646164     Biso  1.000000 In
   In8        1.0     0.507334      0.751437      0.646199     Biso  1.000000 In
   In9        1.0     0.069232      0.998987      0.303568     Biso  1.000000 In
   In10       1.0     0.553981      0.499056      0.301202     Biso  1.000000 In
   In11       1.0     0.422644      0.999533      0.406310     Biso  1.000000 In
   In12       1.0     0.925436      0.499664      0.411520     Biso  1.000000 In
   In13       1.0     0.168309      0.250021      0.541956     Biso  1.000000 In
   In14       1.0     0.667418      0.750136      0.541276     Biso  1.000000 In
   In15       1.0     0.257488      0.001607      0.646463     Biso  1.000000 In
   In16       1.0     0.757338      0.501837      0.645923     Biso  1.000000 In
   In17       1.0     0.316074      0.242575      0.302799     Biso  1.000000 In
   In18       1.0     0.827425      0.748027      0.308078     Biso  1.000000 In
   In19       1.0     0.174030      0.749837      0.408689     Biso  1.000000 In
   In20       1.0     0.674191      0.252613      0.404694     Biso  1.000000 In
   In21       1.0     0.417891      0.500135      0.541729     Biso  1.000000 In
   In22       1.0     0.917688      0.000156      0.541700     Biso  1.000000 In
   In23       1.0     0.007200      0.751472      0.646157     Biso  1.000000 In
   In24       1.0     0.507338      0.251487      0.646193     Biso  1.000000 In
   In25       1.0     0.073419      0.499069      0.304267     Biso  1.000000 In
   In26       1.0     0.571776      0.999113      0.298318     Biso  1.000000 In
   In27       1.0     0.424318      0.499524      0.407194     Biso  1.000000 In
   In28       1.0     0.924489      0.999697      0.410869     Biso  1.000000 In
   In29       1.0     0.168311      0.749989      0.541961     Biso  1.000000 In
   In30       1.0     0.667421      0.250084      0.541278     Biso  1.000000 In
   In31       1.0     0.257409      0.501612      0.646456     Biso  1.000000 In
   In32       1.0     0.757281      0.001829      0.645975     Biso  1.000000 In
   O1         1.0     0.798508      0.499030      0.286550     Biso  1.000000 O
