#======================================================================

# CRYSTAL DATA

#----------------------------------------------------------------------

data_VESTA_phase_1


_chemical_name_common                  'Te_bi_O_dn                            '
_cell_length_a                         14.98850
_cell_length_b                         8.83410
_cell_length_c                         37.60270
_cell_angle_alpha                      90
_cell_angle_beta                       90
_cell_angle_gamma                      89.87970
_space_group_name_H-M_alt              'P 1'
_space_group_IT_number                 1

loop_
_space_group_symop_operation_xyz
   'x, y, z'

loop_
   _atom_site_label
   _atom_site_occupancy
   _atom_site_fract_x
   _atom_site_fract_y
   _atom_site_fract_z
   _atom_site_adp_type
   _atom_site_B_iso_or_equiv
   _atom_site_type_symbol
   In1        1.0     0.169106      0.971301      0.691505     Biso  1.000000 In
   In2        1.0     0.669448      0.471229      0.691117     Biso  1.000000 In
   In3        1.0     0.246734      0.219321      0.414542     Biso  1.000000 In
   In4        1.0     0.747545      0.715881      0.411123     Biso  1.000000 In
   In5        1.0     0.331432      0.968830      0.571912     Biso  1.000000 In
   In6        1.0     0.829985      0.468884      0.571964     Biso  1.000000 In
   In7        1.0     0.384820      0.200456      0.293030     Biso  1.000000 In
   In8        1.0     0.897124      0.698151      0.302253     Biso  1.000000 In
   In9        1.0     0.419504      0.221250      0.691252     Biso  1.000000 In
   In10       1.0     0.919289      0.721191      0.691549     Biso  1.000000 In
   In11       1.0     0.998320      0.968181      0.417018     Biso  1.000000 In
   In12       1.0     0.498302      0.468314      0.413662     Biso  1.000000 In
   In13       1.0     0.080809      0.719100      0.571900     Biso  1.000000 In
   In14       1.0     0.581069      0.219050      0.570863     Biso  1.000000 In
   In15       1.0     0.132246      0.962263      0.294294     Biso  1.000000 In
   In16       1.0     0.622055      0.460555      0.295532     Biso  1.000000 In
   In17       1.0     0.419483      0.721108      0.691261     Biso  1.000000 In
   In18       1.0     0.919265      0.221457      0.691553     Biso  1.000000 In
   In19       1.0     0.495067      0.967861      0.411487     Biso  1.000000 In
   In20       1.0     0.997941      0.468359      0.419756     Biso  1.000000 In
   In21       1.0     0.080880      0.218523      0.571905     Biso  1.000000 In
   In22       1.0     0.581108      0.718882      0.570843     Biso  1.000000 In
   In23       1.0     0.146567      0.461980      0.295587     Biso  1.000000 In
   In24       1.0     0.642305      0.960485      0.285309     Biso  1.000000 In
   In25       1.0     0.169197      0.471287      0.691465     Biso  1.000000 In
   In26       1.0     0.669519      0.971210      0.691157     Biso  1.000000 In
   In27       1.0     0.246763      0.717300      0.414636     Biso  1.000000 In
   In28       1.0     0.747555      0.221563      0.411146     Biso  1.000000 In
   In29       1.0     0.331200      0.468904      0.571826     Biso  1.000000 In
   In30       1.0     0.829768      0.968953      0.572122     Biso  1.000000 In
   In31       1.0     0.384604      0.723130      0.293410     Biso  1.000000 In
   In32       1.0     0.895158      0.225176      0.300980     Biso  1.000000 In
   Te1        1.0     0.501350      0.470922      0.727348     Biso  1.000000 Te
   Te2        1.0     0.001025      0.971076      0.727658     Biso  1.000000 Te
   Te3        1.0     0.081273      0.215034      0.453158     Biso  1.000000 Te
   Te4        1.0     0.579620      0.720764      0.448077     Biso  1.000000 Te
   Te5        1.0     0.163836      0.969249      0.618583     Biso  1.000000 Te
   Te6        1.0     0.662865      0.469352      0.618194     Biso  1.000000 Te
   Te7        1.0     0.227256      0.207079      0.341922     Biso  1.000000 Te
   Te8        1.0     0.724559      0.709370      0.338302     Biso  1.000000 Te
   Te9        1.0     0.498743      0.469152      0.531819     Biso  1.000000 Te
   Te10       1.0     0.997630      0.969091      0.532806     Biso  1.000000 Te
   Te11       1.0     0.053618      0.220140      0.257307     Biso  1.000000 Te
   Te12       1.0     0.547716      0.713535      0.252152     Biso  1.000000 Te
   Te13       1.0     0.251380      0.221017      0.727423     Biso  1.000000 Te
   Te14       1.0     0.750809      0.720913      0.727403     Biso  1.000000 Te
   Te15       1.0     0.329786      0.467923      0.450219     Biso  1.000000 Te
   Te16       1.0     0.824239      0.968353      0.448238     Biso  1.000000 Te
   Te17       1.0     0.414363      0.219534      0.618331     Biso  1.000000 Te
   Te18       1.0     0.913514      0.719238      0.618673     Biso  1.000000 Te
   Te19       1.0     0.466651      0.463243      0.341652     Biso  1.000000 Te
   Te20       1.0     0.975919      0.963735      0.344573     Biso  1.000000 Te
   Te21       1.0     0.249433      0.218916      0.532624     Biso  1.000000 Te
   Te22       1.0     0.749766      0.719303      0.532071     Biso  1.000000 Te
   Te23       1.0     0.309495      0.462426      0.255074     Biso  1.000000 Te
   Te24       1.0     0.820124      0.961866      0.257551     Biso  1.000000 Te
   Te25       1.0     0.251363      0.721004      0.727428     Biso  1.000000 Te
   Te26       1.0     0.750785      0.221066      0.727404     Biso  1.000000 Te
   Te27       1.0     0.329880      0.968066      0.449646     Biso  1.000000 Te
   Te28       1.0     0.823866      0.468292      0.450165     Biso  1.000000 Te
   Te29       1.0     0.414431      0.719102      0.618345     Biso  1.000000 Te
   Te30       1.0     0.913573      0.219332      0.618679     Biso  1.000000 Te
   Te31       1.0     0.484810      0.962848      0.338437     Biso  1.000000 Te
   Te32       1.0     0.991552      0.460804      0.347170     Biso  1.000000 Te
   Te33       1.0     0.249388      0.719297      0.532625     Biso  1.000000 Te
   Te34       1.0     0.749701      0.219028      0.532073     Biso  1.000000 Te
   Te35       1.0     0.295584      0.962111      0.253285     Biso  1.000000 Te
   Te36       1.0     0.765463      0.469988      0.245718     Biso  1.000000 Te
   Te37       1.0     0.501309      0.970907      0.727306     Biso  1.000000 Te
   Te38       1.0     0.001175      0.471052      0.727687     Biso  1.000000 Te
   Te39       1.0     0.081224      0.720638      0.453207     Biso  1.000000 Te
   Te40       1.0     0.579475      0.214760      0.447969     Biso  1.000000 Te
   Te41       1.0     0.163682      0.469335      0.618546     Biso  1.000000 Te
   Te42       1.0     0.662746      0.969346      0.618230     Biso  1.000000 Te
   Te43       1.0     0.226596      0.719226      0.341993     Biso  1.000000 Te
   Te44       1.0     0.724250      0.215201      0.338314     Biso  1.000000 Te
   Te45       1.0     0.498794      0.969140      0.531881     Biso  1.000000 Te
   Te46       1.0     0.998401      0.468995      0.532783     Biso  1.000000 Te
   Te47       1.0     0.053445      0.705122      0.257437     Biso  1.000000 Te
   Te48       1.0     0.548378      0.210214      0.252226     Biso  1.000000 Te
   O1         1.0     0.868583      0.462769      0.279048     Biso  1.000000 O
