#======================================================================

# CRYSTAL DATA

#----------------------------------------------------------------------

data_VESTA_phase_1


_chemical_name_common                  'S_mono_O_dn                           '
_cell_length_a                         13.50870
_cell_length_b                         7.95540
_cell_length_c                         20.16170
_cell_angle_alpha                      90
_cell_angle_beta                       90
_cell_angle_gamma                      89.99971
_space_group_name_H-M_alt              'P 1'
_space_group_IT_number                 1

loop_
_space_group_symop_operation_xyz
   'x, y, z'

loop_
   _atom_site_label
   _atom_site_occupancy
   _atom_site_fract_x
   _atom_site_fract_y
   _atom_site_fract_z
   _atom_site_adp_type
   _atom_site_B_iso_or_equiv
   _atom_site_type_symbol
   In1        1.0     0.067633      0.250966      0.592576     Biso  1.000000 In
   In2        1.0     0.567782      0.750896      0.583191     Biso  1.000000 In
   In3        1.0     0.175847      0.505571      0.788433     Biso  1.000000 In
   In4        1.0     0.664901      0.995971      0.779471     Biso  1.000000 In
   In5        1.0     0.317835      0.501705      0.587522     Biso  1.000000 In
   In6        1.0     0.817573      0.003535      0.596660     Biso  1.000000 In
   In7        1.0     0.421144      0.750798      0.786343     Biso  1.000000 In
   In8        1.0     0.937353      0.250842      0.797015     Biso  1.000000 In
   In9        1.0     0.068885      0.750966      0.592346     Biso  1.000000 In
   In10       1.0     0.566146      0.250935      0.582921     Biso  1.000000 In
   In11       1.0     0.175876      0.996165      0.788450     Biso  1.000000 In
   In12       1.0     0.664882      0.505580      0.779460     Biso  1.000000 In
   In13       1.0     0.317847      0.000234      0.587503     Biso  1.000000 In
   In14       1.0     0.817586      0.498276      0.596665     Biso  1.000000 In
   In15       1.0     0.420596      0.250803      0.785235     Biso  1.000000 In
   In16       1.0     0.921219      0.750866      0.796061     Biso  1.000000 In
   S1         1.0     0.484487      0.502185      0.528058     Biso  1.000000 S
   S2         1.0     0.984588      0.001104      0.538296     Biso  1.000000 S
   S3         1.0     0.086958      0.250864      0.710957     Biso  1.000000 S
   S4         1.0     0.580366      0.750811      0.702211     Biso  1.000000 S
   S5         1.0     0.014955      0.991582      0.852315     Biso  1.000000 S
   S6         1.0     0.503267      0.500981      0.843540     Biso  1.000000 S
   S7         1.0     0.234316      0.250967      0.533561     Biso  1.000000 S
   S8         1.0     0.742113      0.750896      0.537730     Biso  1.000000 S
   S9         1.0     0.333472      0.503147      0.705897     Biso  1.000000 S
   S10        1.0     0.834888      0.008969      0.715335     Biso  1.000000 S
   S11        1.0     0.256292      0.250874      0.846190     Biso  1.000000 S
   S12        1.0     0.746927      0.750794      0.845393     Biso  1.000000 S
   S13        1.0     0.484509      0.999644      0.528058     Biso  1.000000 S
   S14        1.0     0.984594      0.500803      0.538295     Biso  1.000000 S
   S15        1.0     0.081233      0.750878      0.710677     Biso  1.000000 S
   S16        1.0     0.575907      0.250814      0.701083     Biso  1.000000 S
   S17        1.0     0.014943      0.510137      0.852312     Biso  1.000000 S
   S18        1.0     0.503269      0.000625      0.843535     Biso  1.000000 S
   S19        1.0     0.234434      0.750951      0.532436     Biso  1.000000 S
   S20        1.0     0.739977      0.250917      0.535881     Biso  1.000000 S
   S21        1.0     0.333476      0.998525      0.705884     Biso  1.000000 S
   S22        1.0     0.834885      0.492713      0.715337     Biso  1.000000 S
   S23        1.0     0.259415      0.750849      0.848318     Biso  1.000000 S
   S24        1.0     0.792139      0.250815      0.873073     Biso  1.000000 S
   O1         1.0     0.696006      0.250796      0.820695     Biso  1.000000 O
