#======================================================================

# CRYSTAL DATA

#----------------------------------------------------------------------

data_VESTA_phase_1


_chemical_name_common                  'Te_mono_O_up                          '
_cell_length_a                         8.83410
_cell_length_b                         15.00940
_cell_length_c                         37.33120
_cell_angle_alpha                      90
_cell_angle_beta                       90
_cell_angle_gamma                      90
_space_group_name_H-M_alt              'P 1'
_space_group_IT_number                 1

loop_
_space_group_symop_operation_xyz
   'x, y, z'

loop_
   _atom_site_label
   _atom_site_occupancy
   _atom_site_fract_x
   _atom_site_fract_y
   _atom_site_fract_z
   _atom_site_adp_type
   _atom_site_B_iso_or_equiv
   _atom_site_type_symbol
   In1        1.0     0.242622      0.899676      0.616931     Biso  1.000000 In
   In2        1.0     0.746643      0.414048      0.615559     Biso  1.000000 In
   In3        1.0     0.250876      0.087077      0.493692     Biso  1.000000 In
   In4        1.0     0.754802      0.585677      0.495280     Biso  1.000000 In
   In5        1.0     0.500363      0.169210      0.614450     Biso  1.000000 In
   In6        1.0     0.984451      0.663322      0.616961     Biso  1.000000 In
   In7        1.0     0.003886      0.834559      0.498341     Biso  1.000000 In
   In8        1.0     0.505764      0.333891      0.494336     Biso  1.000000 In
   In9        1.0     0.012542      0.169583      0.615647     Biso  1.000000 In
   In10       1.0     0.496193      0.672635      0.617217     Biso  1.000000 In
   In11       1.0     0.493122      0.826394      0.496512     Biso  1.000000 In
   In12       1.0     0.998200      0.330918      0.494704     Biso  1.000000 In
   In13       1.0     0.250681      0.423255      0.615775     Biso  1.000000 In
   In14       1.0     0.782192      0.927723      0.617256     Biso  1.000000 In
   In15       1.0     0.249415      0.578548      0.495739     Biso  1.000000 In
   In16       1.0     0.751765      0.078041      0.495335     Biso  1.000000 In
   Te1        1.0     0.259519      0.918402      0.544381     Biso  1.000000 Te
   Te2        1.0     0.752290      0.415784      0.542273     Biso  1.000000 Te
   Te3        1.0     0.030580      0.005650      0.654627     Biso  1.000000 Te
   Te4        1.0     0.503578      0.501320      0.652218     Biso  1.000000 Te
   Te5        1.0     0.004031      0.998707      0.456160     Biso  1.000000 Te
   Te6        1.0     0.504393      0.502599      0.456067     Biso  1.000000 Te
   Te7        1.0     0.000834      0.664301      0.543682     Biso  1.000000 Te
   Te8        1.0     0.503159      0.166371      0.541436     Biso  1.000000 Te
   Te9        1.0     0.257733      0.254859      0.652013     Biso  1.000000 Te
   Te10       1.0     0.745658      0.757543      0.652601     Biso  1.000000 Te
   Te11       1.0     0.252503      0.254264      0.454886     Biso  1.000000 Te
   Te12       1.0     0.751468      0.754598      0.457416     Biso  1.000000 Te
   Te13       1.0     0.002953      0.164315      0.542327     Biso  1.000000 Te
   Te14       1.0     0.499138      0.662378      0.543803     Biso  1.000000 Te
   Te15       1.0     0.235028      0.735995      0.654686     Biso  1.000000 Te
   Te16       1.0     0.755857      0.245659      0.651987     Biso  1.000000 Te
   Te17       1.0     0.243322      0.746913      0.456957     Biso  1.000000 Te
   Te18       1.0     0.751216      0.245896      0.455440     Biso  1.000000 Te
   Te19       1.0     0.250783      0.412918      0.542485     Biso  1.000000 Te
   Te20       1.0     0.753293      0.915040      0.544391     Biso  1.000000 Te
   Te21       1.0     0.993249      0.495377      0.652779     Biso  1.000000 Te
   Te22       1.0     0.559801      0.017999      0.659506     Biso  1.000000 Te
   Te23       1.0     0.498188      0.995485      0.457335     Biso  1.000000 Te
   Te24       1.0     0.998996      0.498840      0.455715     Biso  1.000000 Te
   O1         1.0     0.428181      0.915990      0.651225     Biso  1.000000 O
