#======================================================================

# CRYSTAL DATA

#----------------------------------------------------------------------

data_VESTA_phase_1


_chemical_name_common                  'Se_mono_O_dn                          '
_cell_length_a                         8.26460
_cell_length_b                         14.03400
_cell_length_c                         40.00000
_cell_angle_alpha                      90
_cell_angle_beta                       90
_cell_angle_gamma                      90.00250
_space_group_name_H-M_alt              'P 1'
_space_group_IT_number                 1

loop_
_space_group_symop_operation_xyz
   'x, y, z'

loop_
   _atom_site_label
   _atom_site_occupancy
   _atom_site_fract_x
   _atom_site_fract_y
   _atom_site_fract_z
   _atom_site_adp_type
   _atom_site_B_iso_or_equiv
   _atom_site_type_symbol
   Se1        1.0     0.240432      0.904128      0.248971     Biso  1.000000 Se
   Se2        1.0     0.746118      0.414526      0.253875     Biso  1.000000 Se
   Se3        1.0     0.256163      0.081605      0.322531     Biso  1.000000 Se
   Se4        1.0     0.751415      0.584461      0.327600     Biso  1.000000 Se
   Se5        1.0     0.248819      0.934286      0.417834     Biso  1.000000 Se
   Se6        1.0     0.751118      0.434863      0.423643     Biso  1.000000 Se
   Se7        1.0     0.498394      0.663051      0.252279     Biso  1.000000 Se
   Se8        1.0     0.998451      0.173737      0.252944     Biso  1.000000 Se
   Se9        1.0     0.498397      0.829754      0.324958     Biso  1.000000 Se
   Se10       1.0     0.998563      0.336547      0.329463     Biso  1.000000 Se
   Se11       1.0     0.999063      0.176869      0.418000     Biso  1.000000 Se
   Se12       1.0     0.499195      0.684907      0.420492     Biso  1.000000 Se
   Se13       1.0     0.498917      0.127434      0.239149     Biso  1.000000 Se
   Se14       1.0     0.998010      0.657488      0.251172     Biso  1.000000 Se
   Se15       1.0     0.498316      0.343503      0.330767     Biso  1.000000 Se
   Se16       1.0     0.998482      0.838146      0.324632     Biso  1.000000 Se
   Se17       1.0     0.999283      0.684702      0.420850     Biso  1.000000 Se
   Se18       1.0     0.499130      0.178382      0.419298     Biso  1.000000 Se
   Se19       1.0     0.250352      0.414602      0.253833     Biso  1.000000 Se
   Se20       1.0     0.756931      0.904066      0.248984     Biso  1.000000 Se
   Se21       1.0     0.245263      0.584446      0.327584     Biso  1.000000 Se
   Se22       1.0     0.741201      0.081589      0.322551     Biso  1.000000 Se
   Se23       1.0     0.247130      0.434835      0.423667     Biso  1.000000 Se
   Se24       1.0     0.749678      0.934286      0.417845     Biso  1.000000 Se
   In1        1.0     0.498201      0.499247      0.286470     Biso  1.000000 In
   In2        1.0     0.998649      0.998713      0.279779     Biso  1.000000 In
   In3        1.0     0.252025      0.101412      0.385654     Biso  1.000000 In
   In4        1.0     0.749556      0.600867      0.390568     Biso  1.000000 In
   In5        1.0     0.242140      0.742706      0.284260     Biso  1.000000 In
   In6        1.0     0.747256      0.253138      0.289311     Biso  1.000000 In
   In7        1.0     0.999193      0.351912      0.392569     Biso  1.000000 In
   In8        1.0     0.499305      0.851429      0.387846     Biso  1.000000 In
   In9        1.0     0.249463      0.253120      0.289232     Biso  1.000000 In
   In10       1.0     0.754147      0.742826      0.284379     Biso  1.000000 In
   In11       1.0     0.999294      0.849579      0.387647     Biso  1.000000 In
   In12       1.0     0.499156      0.353175      0.393543     Biso  1.000000 In
   In13       1.0     0.498673      0.981565      0.280477     Biso  1.000000 In
   In14       1.0     0.998210      0.495269      0.285570     Biso  1.000000 In
   In15       1.0     0.248960      0.600825      0.390553     Biso  1.000000 In
   In16       1.0     0.746226      0.101384      0.385665     Biso  1.000000 In
   O1         1.0     0.498414      0.226292      0.269415     Biso  1.000000 O
