#======================================================================

# CRYSTAL DATA

#----------------------------------------------------------------------

data_VESTA_phase_1


_chemical_name_common                  'Te_mono_O_dn                          '
_cell_length_a                         15.00940
_cell_length_b                         8.83410
_cell_length_c                         37.33120
_cell_angle_alpha                      90
_cell_angle_beta                       90
_cell_angle_gamma                      90.00029
_space_group_name_H-M_alt              'P 1'
_space_group_IT_number                 1

loop_
_space_group_symop_operation_xyz
   'x, y, z'

loop_
   _atom_site_label
   _atom_site_occupancy
   _atom_site_fract_x
   _atom_site_fract_y
   _atom_site_fract_z
   _atom_site_adp_type
   _atom_site_B_iso_or_equiv
   _atom_site_type_symbol
   In1        1.0     0.183208      0.996040      0.617652     Biso  1.000000 In
   In2        1.0     0.684210      0.496924      0.612942     Biso  1.000000 In
   In3        1.0     0.068341      0.252086      0.496635     Biso  1.000000 In
   In4        1.0     0.558141      0.756644      0.494845     Biso  1.000000 In
   In5        1.0     0.183105      0.498419      0.617700     Biso  1.000000 In
   In6        1.0     0.683911      0.992483      0.612708     Biso  1.000000 In
   In7        1.0     0.084331      0.752603      0.497851     Biso  1.000000 In
   In8        1.0     0.581484      0.257767      0.487508     Biso  1.000000 In
   In9        1.0     0.435259      0.747285      0.615357     Biso  1.000000 In
   In10       1.0     0.935875      0.246384      0.619738     Biso  1.000000 In
   In11       1.0     0.322589      0.014979      0.494963     Biso  1.000000 In
   In12       1.0     0.835526      0.518773      0.504603     Biso  1.000000 In
   In13       1.0     0.431138      0.247900      0.614028     Biso  1.000000 In
   In14       1.0     0.935098      0.746341      0.622390     Biso  1.000000 In
   In15       1.0     0.321915      0.491226      0.495364     Biso  1.000000 In
   In16       1.0     0.830288      0.990439      0.500568     Biso  1.000000 In
   Te1        1.0     0.165025      0.008123      0.544650     Biso  1.000000 Te
   Te2        1.0     0.661817      0.510368      0.539908     Biso  1.000000 Te
   Te3        1.0     0.018175      0.999327      0.656932     Biso  1.000000 Te
   Te4        1.0     0.516653      0.495111      0.650422     Biso  1.000000 Te
   Te5        1.0     0.483700      0.499699      0.453319     Biso  1.000000 Te
   Te6        1.0     0.992971      0.994053      0.458987     Biso  1.000000 Te
   Te7        1.0     0.163596      0.495055      0.544711     Biso  1.000000 Te
   Te8        1.0     0.660046      0.999056      0.539643     Biso  1.000000 Te
   Te9        1.0     0.017938      0.494112      0.656917     Biso  1.000000 Te
   Te10       1.0     0.516388      0.999959      0.650297     Biso  1.000000 Te
   Te11       1.0     0.485330      0.010255      0.453648     Biso  1.000000 Te
   Te12       1.0     0.991441      0.510213      0.459465     Biso  1.000000 Te
   Te13       1.0     0.404409      0.751286      0.542956     Biso  1.000000 Te
   Te14       1.0     0.912073      0.249787      0.547002     Biso  1.000000 Te
   Te15       1.0     0.267801      0.747229      0.653179     Biso  1.000000 Te
   Te16       1.0     0.760906      0.244711      0.650584     Biso  1.000000 Te
   Te17       1.0     0.247006      0.752957      0.456980     Biso  1.000000 Te
   Te18       1.0     0.759188      0.254606      0.459211     Biso  1.000000 Te
   Te19       1.0     0.422460      0.252010      0.540756     Biso  1.000000 Te
   Te20       1.0     0.928976      0.758287      0.549507     Biso  1.000000 Te
   Te21       1.0     0.266776      0.247364      0.652995     Biso  1.000000 Te
   Te22       1.0     0.760201      0.745629      0.652380     Biso  1.000000 Te
   Te23       1.0     0.231835      0.253081      0.455523     Biso  1.000000 Te
   Te24       1.0     0.703982      0.730481      0.446687     Biso  1.000000 Te
   O1         1.0     0.805529      0.752101      0.481011     Biso  1.000000 O
