#======================================================================

# CRYSTAL DATA

#----------------------------------------------------------------------

data_VESTA_phase_1


_chemical_name_common                  'Se_tri_O_dn                           '
_cell_length_a                         8.25840
_cell_length_b                         14.02430
_cell_length_c                         50.00000
_cell_angle_alpha                      90
_cell_angle_beta                       90
_cell_angle_gamma                      90
_space_group_name_H-M_alt              'P 1'
_space_group_IT_number                 1

loop_
_space_group_symop_operation_xyz
   'x, y, z'

loop_
   _atom_site_label
   _atom_site_occupancy
   _atom_site_fract_x
   _atom_site_fract_y
   _atom_site_fract_z
   _atom_site_adp_type
   _atom_site_B_iso_or_equiv
   _atom_site_type_symbol
   Se1        1.0     0.346077      0.871611      0.225136     Biso  1.000000 Se
   Se2        1.0     0.845675      0.333816      0.216593     Biso  1.000000 Se
   Se3        1.0     0.345679      0.050236      0.284419     Biso  1.000000 Se
   Se4        1.0     0.845947      0.555306      0.288585     Biso  1.000000 Se
   Se5        1.0     0.341734      0.894199      0.360975     Biso  1.000000 Se
   Se6        1.0     0.842066      0.389350      0.360404     Biso  1.000000 Se
   Se7        1.0     0.089129      0.972076      0.416880     Biso  1.000000 Se
   Se8        1.0     0.588906      0.471782      0.416655     Biso  1.000000 Se
   Se9        1.0     0.087274      0.138181      0.476107     Biso  1.000000 Se
   Se10       1.0     0.587442      0.637899      0.476155     Biso  1.000000 Se
   Se11       1.0     0.078766      0.974902      0.551392     Biso  1.000000 Se
   Se12       1.0     0.578919      0.474312      0.551205     Biso  1.000000 Se
   Se13       1.0     0.320029      0.894407      0.610468     Biso  1.000000 Se
   Se14       1.0     0.820033      0.394433      0.610449     Biso  1.000000 Se
   Se15       1.0     0.319099      0.060492      0.669802     Biso  1.000000 Se
   Se16       1.0     0.819132      0.560444      0.669802     Biso  1.000000 Se
   Se17       1.0     0.316634      0.896400      0.745173     Biso  1.000000 Se
   Se18       1.0     0.816646      0.396404      0.745172     Biso  1.000000 Se
   Se19       1.0     0.100963      0.118895      0.224398     Biso  1.000000 Se
   Se20       1.0     0.598106      0.626428      0.227334     Biso  1.000000 Se
   Se21       1.0     0.089840      0.295397      0.283174     Biso  1.000000 Se
   Se22       1.0     0.592367      0.796203      0.286228     Biso  1.000000 Se
   Se23       1.0     0.093845      0.144398      0.359401     Biso  1.000000 Se
   Se24       1.0     0.590803      0.644844      0.362725     Biso  1.000000 Se
   Se25       1.0     0.339091      0.722575      0.417160     Biso  1.000000 Se
   Se26       1.0     0.839004      0.221395      0.416641     Biso  1.000000 Se
   Se27       1.0     0.336952      0.888413      0.476292     Biso  1.000000 Se
   Se28       1.0     0.837098      0.387870      0.475907     Biso  1.000000 Se
   Se29       1.0     0.329113      0.724502      0.551318     Biso  1.000000 Se
   Se30       1.0     0.828979      0.224840      0.551227     Biso  1.000000 Se
   Se31       1.0     0.070230      0.144384      0.610452     Biso  1.000000 Se
   Se32       1.0     0.570258      0.644356      0.610448     Biso  1.000000 Se
   Se33       1.0     0.069374      0.310447      0.669804     Biso  1.000000 Se
   Se34       1.0     0.569372      0.810438      0.669807     Biso  1.000000 Se
   Se35       1.0     0.066887      0.146369      0.745181     Biso  1.000000 Se
   Se36       1.0     0.566874      0.646364      0.745181     Biso  1.000000 Se
   Se37       1.0     0.093869      0.626409      0.227282     Biso  1.000000 Se
   Se38       1.0     0.591587      0.118748      0.224393     Biso  1.000000 Se
   Se39       1.0     0.097978      0.796260      0.286247     Biso  1.000000 Se
   Se40       1.0     0.601344      0.295195      0.283188     Biso  1.000000 Se
   Se41       1.0     0.092924      0.644844      0.362758     Biso  1.000000 Se
   Se42       1.0     0.590378      0.144346      0.359412     Biso  1.000000 Se
   Se43       1.0     0.339006      0.221481      0.416654     Biso  1.000000 Se
   Se44       1.0     0.839064      0.722356      0.417133     Biso  1.000000 Se
   Se45       1.0     0.337136      0.387867      0.475947     Biso  1.000000 Se
   Se46       1.0     0.837014      0.888338      0.476289     Biso  1.000000 Se
   Se47       1.0     0.328976      0.224739      0.551238     Biso  1.000000 Se
   Se48       1.0     0.829113      0.724454      0.551316     Biso  1.000000 Se
   Se49       1.0     0.070260      0.644355      0.610448     Biso  1.000000 Se
   Se50       1.0     0.570240      0.144383      0.610452     Biso  1.000000 Se
   Se51       1.0     0.069394      0.810444      0.669807     Biso  1.000000 Se
   Se52       1.0     0.569368      0.310448      0.669805     Biso  1.000000 Se
   Se53       1.0     0.066871      0.646363      0.745182     Biso  1.000000 Se
   Se54       1.0     0.566880      0.146367      0.745180     Biso  1.000000 Se
   Se55       1.0     0.346494      0.385930      0.227191     Biso  1.000000 Se
   Se56       1.0     0.846284      0.877453      0.226136     Biso  1.000000 Se
   Se57       1.0     0.345529      0.549769      0.288027     Biso  1.000000 Se
   Se58       1.0     0.845639      0.038876      0.285743     Biso  1.000000 Se
   Se59       1.0     0.342111      0.387719      0.359326     Biso  1.000000 Se
   Se60       1.0     0.841731      0.893494      0.361078     Biso  1.000000 Se
   Se61       1.0     0.089617      0.471755      0.416669     Biso  1.000000 Se
   Se62       1.0     0.589379      0.972080      0.416883     Biso  1.000000 Se
   Se63       1.0     0.087195      0.637893      0.476152     Biso  1.000000 Se
   Se64       1.0     0.587210      0.138182      0.476106     Biso  1.000000 Se
   Se65       1.0     0.078860      0.474300      0.551202     Biso  1.000000 Se
   Se66       1.0     0.578825      0.974899      0.551390     Biso  1.000000 Se
   Se67       1.0     0.320038      0.394438      0.610448     Biso  1.000000 Se
   Se68       1.0     0.820031      0.894408      0.610470     Biso  1.000000 Se
   Se69       1.0     0.319133      0.560440      0.669802     Biso  1.000000 Se
   Se70       1.0     0.819111      0.060485      0.669804     Biso  1.000000 Se
   Se71       1.0     0.316644      0.396402      0.745173     Biso  1.000000 Se
   Se72       1.0     0.816632      0.896393      0.745173     Biso  1.000000 Se
   In1        1.0     0.346513      0.211015      0.248752     Biso  1.000000 In
   In2        1.0     0.846156      0.713092      0.253265     Biso  1.000000 In
   In3        1.0     0.342108      0.059588      0.335139     Biso  1.000000 In
   In4        1.0     0.841909      0.562476      0.339217     Biso  1.000000 In
   In5        1.0     0.089150      0.303848      0.443159     Biso  1.000000 In
   In6        1.0     0.589113      0.804730      0.443707     Biso  1.000000 In
   In7        1.0     0.078747      0.142829      0.526948     Biso  1.000000 In
   In8        1.0     0.578907      0.642585      0.526999     Biso  1.000000 In
   In9        1.0     0.320218      0.226720      0.636936     Biso  1.000000 In
   In10       1.0     0.820236      0.726661      0.636948     Biso  1.000000 In
   In11       1.0     0.316816      0.064459      0.720603     Biso  1.000000 In
   In12       1.0     0.816805      0.564466      0.720601     Biso  1.000000 In
   In13       1.0     0.095794      0.467214      0.256645     Biso  1.000000 In
   In14       1.0     0.590172      0.955408      0.252268     Biso  1.000000 In
   In15       1.0     0.088927      0.311513      0.334110     Biso  1.000000 In
   In16       1.0     0.591633      0.811205      0.336898     Biso  1.000000 In
   In17       1.0     0.339340      0.054346      0.443400     Biso  1.000000 In
   In18       1.0     0.839382      0.553941      0.443363     Biso  1.000000 In
   In19       1.0     0.328672      0.892879      0.527146     Biso  1.000000 In
   In20       1.0     0.828774      0.392764      0.526782     Biso  1.000000 In
   In21       1.0     0.069950      0.476660      0.636959     Biso  1.000000 In
   In22       1.0     0.569936      0.976693      0.636975     Biso  1.000000 In
   In23       1.0     0.066578      0.314441      0.720611     Biso  1.000000 In
   In24       1.0     0.566551      0.814430      0.720613     Biso  1.000000 In
   In25       1.0     0.102617      0.955552      0.252295     Biso  1.000000 In
   In26       1.0     0.597332      0.467387      0.256774     Biso  1.000000 In
   In27       1.0     0.091903      0.811164      0.336914     Biso  1.000000 In
   In28       1.0     0.595251      0.311424      0.334110     Biso  1.000000 In
   In29       1.0     0.339382      0.554197      0.443486     Biso  1.000000 In
   In30       1.0     0.839341      0.054365      0.443459     Biso  1.000000 In
   In31       1.0     0.328786      0.392695      0.526812     Biso  1.000000 In
   In32       1.0     0.828678      0.892814      0.527149     Biso  1.000000 In
   In33       1.0     0.069940      0.976694      0.636974     Biso  1.000000 In
   In34       1.0     0.569953      0.476662      0.636960     Biso  1.000000 In
   In35       1.0     0.066555      0.814428      0.720614     Biso  1.000000 In
   In36       1.0     0.566579      0.314442      0.720612     Biso  1.000000 In
   In37       1.0     0.345977      0.708904      0.252762     Biso  1.000000 In
   In38       1.0     0.846480      0.192796      0.252257     Biso  1.000000 In
   In39       1.0     0.341842      0.561759      0.338820     Biso  1.000000 In
   In40       1.0     0.842093      0.061325      0.336297     Biso  1.000000 In
   In41       1.0     0.089089      0.804715      0.443699     Biso  1.000000 In
   In42       1.0     0.589109      0.303860      0.443147     Biso  1.000000 In
   In43       1.0     0.078985      0.642588      0.526998     Biso  1.000000 In
   In44       1.0     0.578809      0.142831      0.526947     Biso  1.000000 In
   In45       1.0     0.320231      0.726657      0.636948     Biso  1.000000 In
   In46       1.0     0.820219      0.226719      0.636938     Biso  1.000000 In
   In47       1.0     0.316801      0.564466      0.720602     Biso  1.000000 In
   In48       1.0     0.816823      0.064457      0.720605     Biso  1.000000 In
   O1         1.0     0.846318      0.437198      0.238445     Biso  1.000000 O
