#======================================================================

# CRYSTAL DATA

#----------------------------------------------------------------------

data_VESTA_phase_1


_chemical_name_common                  'Te_tri_O_dn                           '
_cell_length_a                         15.06640
_cell_length_b                         8.85350
_cell_length_c                         47.40790
_cell_angle_alpha                      90
_cell_angle_beta                       90
_cell_angle_gamma                      89.97480
_space_group_name_H-M_alt              'P 1'
_space_group_IT_number                 1

loop_
_space_group_symop_operation_xyz
   'x, y, z'

loop_
   _atom_site_label
   _atom_site_occupancy
   _atom_site_fract_x
   _atom_site_fract_y
   _atom_site_fract_z
   _atom_site_adp_type
   _atom_site_B_iso_or_equiv
   _atom_site_type_symbol
   In1        1.0     0.159089      0.267866      0.360399     Biso  1.000000 In
   In2        1.0     0.660100      0.763788      0.357988     Biso  1.000000 In
   In3        1.0     0.299292      0.254111      0.263999     Biso  1.000000 In
   In4        1.0     0.811539      0.751662      0.271284     Biso  1.000000 In
   In5        1.0     0.410047      0.517149      0.360093     Biso  1.000000 In
   In6        1.0     0.910843      0.017151      0.362401     Biso  1.000000 In
   In7        1.0     0.047757      0.015575      0.265040     Biso  1.000000 In
   In8        1.0     0.538125      0.514127      0.268286     Biso  1.000000 In
   In9        1.0     0.407650      0.017040      0.357525     Biso  1.000000 In
   In10       1.0     0.910259      0.517176      0.364498     Biso  1.000000 In
   In11       1.0     0.060606      0.515655      0.265819     Biso  1.000000 In
   In12       1.0     0.554799      0.014678      0.256475     Biso  1.000000 In
   In13       1.0     0.159216      0.765654      0.360394     Biso  1.000000 In
   In14       1.0     0.660150      0.271160      0.358021     Biso  1.000000 In
   In15       1.0     0.299112      0.775485      0.263970     Biso  1.000000 In
   In16       1.0     0.810929      0.280304      0.270885     Biso  1.000000 In
   In17       1.0     0.239777      0.018861      0.574111     Biso  1.000000 In
   In18       1.0     0.739511      0.518947      0.573328     Biso  1.000000 In
   In19       1.0     0.401656      0.016601      0.478989     Biso  1.000000 In
   In20       1.0     0.900991      0.516797      0.478465     Biso  1.000000 In
   In21       1.0     0.489587      0.269019      0.573723     Biso  1.000000 In
   In22       1.0     0.989108      0.769246      0.573706     Biso  1.000000 In
   In23       1.0     0.152447      0.766901      0.479531     Biso  1.000000 In
   In24       1.0     0.650900      0.266957      0.478567     Biso  1.000000 In
   In25       1.0     0.489583      0.768865      0.573714     Biso  1.000000 In
   In26       1.0     0.989111      0.268786      0.573705     Biso  1.000000 In
   In27       1.0     0.152448      0.267054      0.479528     Biso  1.000000 In
   In28       1.0     0.650892      0.766816      0.478568     Biso  1.000000 In
   In29       1.0     0.239444      0.518856      0.574087     Biso  1.000000 In
   In30       1.0     0.739297      0.019019      0.573452     Biso  1.000000 In
   In31       1.0     0.401475      0.516591      0.478991     Biso  1.000000 In
   In32       1.0     0.902055      0.016804      0.479139     Biso  1.000000 In
   In33       1.0     0.319500      0.270439      0.787395     Biso  1.000000 In
   In34       1.0     0.819476      0.770327      0.787360     Biso  1.000000 In
   In35       1.0     0.482612      0.269339      0.692648     Biso  1.000000 In
   In36       1.0     0.982533      0.769278      0.692440     Biso  1.000000 In
   In37       1.0     0.069490      0.020297      0.787300     Biso  1.000000 In
   In38       1.0     0.569524      0.520478      0.787454     Biso  1.000000 In
   In39       1.0     0.232587      0.019315      0.692481     Biso  1.000000 In
   In40       1.0     0.732507      0.519326      0.692533     Biso  1.000000 In
   In41       1.0     0.069482      0.520295      0.787314     Biso  1.000000 In
   In42       1.0     0.569502      0.020460      0.787450     Biso  1.000000 In
   In43       1.0     0.232649      0.519294      0.692505     Biso  1.000000 In
   In44       1.0     0.732524      0.019323      0.692529     Biso  1.000000 In
   In45       1.0     0.319491      0.770384      0.787390     Biso  1.000000 In
   In46       1.0     0.819474      0.270320      0.787359     Biso  1.000000 In
   In47       1.0     0.482606      0.769378      0.692643     Biso  1.000000 In
   In48       1.0     0.982520      0.269301      0.692441     Biso  1.000000 In
   Te1        1.0     0.141521      0.260505      0.302547     Biso  1.000000 Te
   Te2        1.0     0.639842      0.765528      0.299965     Biso  1.000000 Te
   Te3        1.0     0.463054      0.761945      0.231607     Biso  1.000000 Te
   Te4        1.0     0.967431      0.272421      0.235639     Biso  1.000000 Te
   Te5        1.0     0.380087      0.515393      0.302779     Biso  1.000000 Te
   Te6        1.0     0.891290      0.016442      0.304696     Biso  1.000000 Te
   Te7        1.0     0.223194      0.514878      0.233720     Biso  1.000000 Te
   Te8        1.0     0.733204      0.015514      0.235836     Biso  1.000000 Te
   Te9        1.0     0.242935      0.016750      0.387697     Biso  1.000000 Te
   Te10       1.0     0.737251      0.517361      0.388749     Biso  1.000000 Te
   Te11       1.0     0.399145      0.015132      0.299348     Biso  1.000000 Te
   Te12       1.0     0.905678      0.515325      0.306692     Biso  1.000000 Te
   Te13       1.0     0.210636      0.015181      0.232317     Biso  1.000000 Te
   Te14       1.0     0.676146      0.519469      0.227035     Biso  1.000000 Te
   Te15       1.0     0.491798      0.263492      0.386577     Biso  1.000000 Te
   Te16       1.0     0.993910      0.769414      0.390746     Biso  1.000000 Te
   Te17       1.0     0.141452      0.771073      0.302537     Biso  1.000000 Te
   Te18       1.0     0.639959      0.264958      0.299974     Biso  1.000000 Te
   Te19       1.0     0.463102      0.268255      0.231631     Biso  1.000000 Te
   Te20       1.0     0.967226      0.759107      0.235664     Biso  1.000000 Te
   Te21       1.0     0.491818      0.770588      0.386599     Biso  1.000000 Te
   Te22       1.0     0.993820      0.264754      0.390778     Biso  1.000000 Te
   Te23       1.0     0.241824      0.516694      0.388618     Biso  1.000000 Te
   Te24       1.0     0.737254      0.017269      0.386893     Biso  1.000000 Te
   Te25       1.0     0.071020      0.018955      0.601978     Biso  1.000000 Te
   Te26       1.0     0.571802      0.518918      0.601832     Biso  1.000000 Te
   Te27       1.0     0.235121      0.017359      0.515996     Biso  1.000000 Te
   Te28       1.0     0.734470      0.517252      0.515142     Biso  1.000000 Te
   Te29       1.0     0.071197      0.016997      0.448271     Biso  1.000000 Te
   Te30       1.0     0.568060      0.516919      0.447341     Biso  1.000000 Te
   Te31       1.0     0.321747      0.269036      0.602188     Biso  1.000000 Te
   Te32       1.0     0.820773      0.768867      0.601755     Biso  1.000000 Te
   Te33       1.0     0.484719      0.267218      0.515605     Biso  1.000000 Te
   Te34       1.0     0.984211      0.766344      0.515588     Biso  1.000000 Te
   Te35       1.0     0.319550      0.266655      0.447774     Biso  1.000000 Te
   Te36       1.0     0.818976      0.768195      0.447366     Biso  1.000000 Te
   Te37       1.0     0.321754      0.768653      0.602184     Biso  1.000000 Te
   Te38       1.0     0.820788      0.269045      0.601768     Biso  1.000000 Te
   Te39       1.0     0.484674      0.767010      0.515600     Biso  1.000000 Te
   Te40       1.0     0.984258      0.267911      0.515584     Biso  1.000000 Te
   Te41       1.0     0.319547      0.766649      0.447775     Biso  1.000000 Te
   Te42       1.0     0.818994      0.265641      0.447372     Biso  1.000000 Te
   Te43       1.0     0.070793      0.518955      0.601946     Biso  1.000000 Te
   Te44       1.0     0.571473      0.018877      0.601884     Biso  1.000000 Te
   Te45       1.0     0.235043      0.517325      0.515942     Biso  1.000000 Te
   Te46       1.0     0.734342      0.017321      0.515318     Biso  1.000000 Te
   Te47       1.0     0.070376      0.516995      0.448160     Biso  1.000000 Te
   Te48       1.0     0.568579      0.016929      0.447481     Biso  1.000000 Te
   Te49       1.0     0.151351      0.270190      0.815718     Biso  1.000000 Te
   Te50       1.0     0.651535      0.770405      0.815818     Biso  1.000000 Te
   Te51       1.0     0.314793      0.269437      0.729466     Biso  1.000000 Te
   Te52       1.0     0.814909      0.769501      0.729432     Biso  1.000000 Te
   Te53       1.0     0.150762      0.269381      0.661353     Biso  1.000000 Te
   Te54       1.0     0.650596      0.769358      0.661447     Biso  1.000000 Te
   Te55       1.0     0.401406      0.520335      0.815798     Biso  1.000000 Te
   Te56       1.0     0.901496      0.020232      0.815721     Biso  1.000000 Te
   Te57       1.0     0.064833      0.019449      0.729368     Biso  1.000000 Te
   Te58       1.0     0.564928      0.519498      0.729529     Biso  1.000000 Te
   Te59       1.0     0.400999      0.519372      0.661479     Biso  1.000000 Te
   Te60       1.0     0.900515      0.019305      0.661335     Biso  1.000000 Te
   Te61       1.0     0.401388      0.020314      0.815791     Biso  1.000000 Te
   Te62       1.0     0.901475      0.520224      0.815726     Biso  1.000000 Te
   Te63       1.0     0.064864      0.519453      0.729384     Biso  1.000000 Te
   Te64       1.0     0.564939      0.019490      0.729526     Biso  1.000000 Te
   Te65       1.0     0.400930      0.019387      0.661471     Biso  1.000000 Te
   Te66       1.0     0.900532      0.519319      0.661348     Biso  1.000000 Te
   Te67       1.0     0.151351      0.770213      0.815718     Biso  1.000000 Te
   Te68       1.0     0.651531      0.270367      0.815814     Biso  1.000000 Te
   Te69       1.0     0.314797      0.769486      0.729462     Biso  1.000000 Te
   Te70       1.0     0.814907      0.269490      0.729432     Biso  1.000000 Te
   Te71       1.0     0.150783      0.769269      0.661354     Biso  1.000000 Te
   Te72       1.0     0.650592      0.269301      0.661447     Biso  1.000000 Te
   O1         1.0     0.781455      0.516303      0.252216     Biso  1.000000 O
