
#======================================================================
# CRYSTAL DATA
#----------------------------------------------------------------------
data_VESTA_phase_1

_chemical_name_common                  'Se_bi                                 '
_cell_length_a                         8.270500
_cell_length_b                         14.044000
_cell_length_c                         48.000000
_cell_angle_alpha                      90.000000
_cell_angle_beta                       90.000000
_cell_angle_gamma                      90.000000
_cell_volume                           5575.243289
_space_group_name_H-M_alt              'P 1'
_space_group_IT_number                 1

loop_
_space_group_symop_operation_xyz
   'x, y, z'

loop_
   _atom_site_label
   _atom_site_occupancy
   _atom_site_fract_x
   _atom_site_fract_y
   _atom_site_fract_z
   _atom_site_adp_type
   _atom_site_U_iso_or_equiv
   _atom_site_type_symbol
   Se1        1.0    -0.000002     0.998693     0.225438    Uiso  ? Se
   Se2        1.0     0.499998     0.498693     0.225438    Uiso  ? Se
   Se3        1.0    -0.000000     0.002488     0.365733    Uiso  ? Se
   Se4        1.0     0.500001     0.502487     0.365733    Uiso  ? Se
   Se5        1.0     0.250000     0.915093     0.287408    Uiso  ? Se
   Se6        1.0     0.750000     0.415093     0.287408    Uiso  ? Se
   Se7        1.0     0.250000     0.082047     0.424397    Uiso  ? Se
   Se8        1.0     0.750000     0.582046     0.424397    Uiso  ? Se
   Se9        1.0     0.250000     0.084789     0.564666    Uiso  ? Se
   Se10       1.0     0.750000     0.584787     0.564666    Uiso  ? Se
   Se11       1.0    -0.000000     0.998163     0.486135    Uiso  ? Se
   Se12       1.0     0.500001     0.498163     0.486135    Uiso  ? Se
   Se13       1.0     0.250000     0.748766     0.225416    Uiso  ? Se
   Se14       1.0     0.750000     0.248766     0.225416    Uiso  ? Se
   Se15       1.0     0.250000     0.752428     0.365740    Uiso  ? Se
   Se16       1.0     0.750000     0.252426     0.365741    Uiso  ? Se
   Se17       1.0     0.000003     0.165072     0.287407    Uiso  ? Se
   Se18       1.0     0.500003     0.665072     0.287407    Uiso  ? Se
   Se19       1.0     0.000001     0.332085     0.424364    Uiso  ? Se
   Se20       1.0     0.499997     0.832084     0.424364    Uiso  ? Se
   Se21       1.0     1.000000     0.334850     0.564542    Uiso  ? Se
   Se22       1.0     0.500000     0.834849     0.564542    Uiso  ? Se
   Se23       1.0     0.250000     0.747950     0.486121    Uiso  ? Se
   Se24       1.0     0.750000     0.247950     0.486121    Uiso  ? Se
   Se25       1.0     0.250000     0.248773     0.225415    Uiso  ? Se
   Se26       1.0     0.750000     0.748773     0.225415    Uiso  ? Se
   Se27       1.0     0.250000     0.252416     0.365743    Uiso  ? Se
   Se28       1.0     0.750000     0.752416     0.365742    Uiso  ? Se
   Se29       1.0     0.999997     0.665072     0.287407    Uiso  ? Se
   Se30       1.0     0.499997     0.165072     0.287407    Uiso  ? Se
   Se31       1.0     0.000003     0.832084     0.424364    Uiso  ? Se
   Se32       1.0     0.499999     0.332086     0.424364    Uiso  ? Se
   Se33       1.0     0.000001     0.834849     0.564542    Uiso  ? Se
   Se34       1.0     0.500001     0.334850     0.564543    Uiso  ? Se
   Se35       1.0     0.250000     0.247950     0.486121    Uiso  ? Se
   Se36       1.0     0.750000     0.747950     0.486121    Uiso  ? Se
   Se37       1.0     0.000002     0.498694     0.225438    Uiso  ? Se
   Se38       1.0     0.500002     0.998693     0.225438    Uiso  ? Se
   Se39       1.0     0.999999     0.502487     0.365733    Uiso  ? Se
   Se40       1.0     0.500000     0.002488     0.365733    Uiso  ? Se
   Se41       1.0     0.250000     0.415080     0.287409    Uiso  ? Se
   Se42       1.0     0.750000     0.915080     0.287409    Uiso  ? Se
   Se43       1.0     0.250000     0.582046     0.424397    Uiso  ? Se
   Se44       1.0     0.750000     0.082046     0.424397    Uiso  ? Se
   Se45       1.0     0.250000     0.584791     0.564665    Uiso  ? Se
   Se46       1.0     0.750000     0.084787     0.564666    Uiso  ? Se
   Se47       1.0     0.999999     0.498163     0.486135    Uiso  ? Se
   Se48       1.0     0.500000     0.998163     0.486135    Uiso  ? Se
   In1        1.0     0.249999     0.920619     0.340234    Uiso  ? In
   In2        1.0     0.750000     0.420615     0.340234    Uiso  ? In
   In3        1.0     0.000001     0.003002     0.538961    Uiso  ? In
   In4        1.0     0.499999     0.503002     0.538960    Uiso  ? In
   In5        1.0     0.250000     0.081013     0.252899    Uiso  ? In
   In6        1.0     0.750000     0.581013     0.252899    Uiso  ? In
   In7        1.0     0.250000     0.914256     0.451799    Uiso  ? In
   In8        1.0     0.750000     0.414252     0.451800    Uiso  ? In
   In9        1.0     0.000002     0.170655     0.340229    Uiso  ? In
   In10       1.0     0.500002     0.670655     0.340229    Uiso  ? In
   In11       1.0     0.250000     0.752798     0.538949    Uiso  ? In
   In12       1.0     0.750000     0.252795     0.538949    Uiso  ? In
   In13       1.0     0.999994     0.330939     0.252921    Uiso  ? In
   In14       1.0     0.499994     0.830939     0.252921    Uiso  ? In
   In15       1.0     0.000000     0.164314     0.451775    Uiso  ? In
   In16       1.0     0.499999     0.664313     0.451775    Uiso  ? In
   In17       1.0     0.999998     0.670655     0.340229    Uiso  ? In
   In18       1.0     0.499998     0.170655     0.340229    Uiso  ? In
   In19       1.0     0.250001     0.252797     0.538950    Uiso  ? In
   In20       1.0     0.750001     0.752795     0.538949    Uiso  ? In
   In21       1.0     0.000005     0.830939     0.252921    Uiso  ? In
   In22       1.0     0.500006     0.330939     0.252921    Uiso  ? In
   In23       1.0     0.000001     0.664313     0.451775    Uiso  ? In
   In24       1.0     0.500000     0.164314     0.451775    Uiso  ? In
   In25       1.0     0.250000     0.420614     0.340236    Uiso  ? In
   In26       1.0     0.750000     0.920614     0.340236    Uiso  ? In
   In27       1.0     0.000002     0.503002     0.538961    Uiso  ? In
   In28       1.0     0.499999     0.003002     0.538960    Uiso  ? In
   In29       1.0     0.250000     0.581007     0.252903    Uiso  ? In
   In30       1.0     0.750000     0.081006     0.252903    Uiso  ? In
   In31       1.0     0.250000     0.414255     0.451799    Uiso  ? In
   In32       1.0     0.750000     0.914251     0.451800    Uiso  ? In
