
#======================================================================
# CRYSTAL DATA
#----------------------------------------------------------------------
data_VESTA_phase_1

_chemical_name_common                  'S_bi                                  '
_cell_length_a                         13.508400
_cell_length_b                         7.926000
_cell_length_c                         36.594898
_cell_angle_alpha                      90.000000
_cell_angle_beta                       90.000000
_cell_angle_gamma                      90.002655
_cell_volume                           3918.127178
_space_group_name_H-M_alt              'P 1'
_space_group_IT_number                 1

loop_
_space_group_symop_operation_xyz
   'x, y, z'

loop_
   _atom_site_label
   _atom_site_occupancy
   _atom_site_fract_x
   _atom_site_fract_y
   _atom_site_fract_z
   _atom_site_adp_type
   _atom_site_U_iso_or_equiv
   _atom_site_type_symbol
   In1        1.0     0.021858     0.528472     0.343788    Uiso  ? In
   In2        1.0     0.521858     0.028473     0.343788    Uiso  ? In
   In3        1.0     0.101801     0.277210     0.592982    Uiso  ? In
   In4        1.0     0.601802     0.777210     0.592982    Uiso  ? In
   In5        1.0     0.108675     0.778105     0.452996    Uiso  ? In
   In6        1.0     0.608675     0.278106     0.452996    Uiso  ? In
   In7        1.0     0.188928     0.526347     0.702283    Uiso  ? In
   In8        1.0     0.688927     0.026346     0.702284    Uiso  ? In
   In9        1.0     0.271851     0.778450     0.343779    Uiso  ? In
   In10       1.0     0.771848     0.278448     0.343779    Uiso  ? In
   In11       1.0     0.351804     0.527253     0.592986    Uiso  ? In
   In12       1.0     0.851805     0.027253     0.592986    Uiso  ? In
   In13       1.0     0.358671     0.028177     0.452995    Uiso  ? In
   In14       1.0     0.858671     0.528177     0.452995    Uiso  ? In
   In15       1.0     0.438930     0.776344     0.702293    Uiso  ? In
   In16       1.0     0.938931     0.276344     0.702293    Uiso  ? In
   In17       1.0     0.021859     0.028472     0.343789    Uiso  ? In
   In18       1.0     0.521860     0.528473     0.343789    Uiso  ? In
   In19       1.0     0.101801     0.777210     0.592982    Uiso  ? In
   In20       1.0     0.601802     0.277210     0.592982    Uiso  ? In
   In21       1.0     0.108676     0.278106     0.452996    Uiso  ? In
   In22       1.0     0.608676     0.778105     0.452996    Uiso  ? In
   In23       1.0     0.188930     0.026347     0.702284    Uiso  ? In
   In24       1.0     0.688927     0.526346     0.702283    Uiso  ? In
   In25       1.0     0.271849     0.278450     0.343779    Uiso  ? In
   In26       1.0     0.771848     0.778452     0.343779    Uiso  ? In
   In27       1.0     0.351805     0.027253     0.592986    Uiso  ? In
   In28       1.0     0.851806     0.527253     0.592986    Uiso  ? In
   In29       1.0     0.358671     0.528178     0.452995    Uiso  ? In
   In30       1.0     0.858671     0.028177     0.452995    Uiso  ? In
   In31       1.0     0.438931     0.276344     0.702293    Uiso  ? In
   In32       1.0     0.938930     0.776345     0.702293    Uiso  ? In
   S1         1.0     0.439652     0.778471     0.312958    Uiso  ? S
   S2         1.0     0.939649     0.278469     0.312959    Uiso  ? S
   S3         1.0     0.019697     0.027209     0.562413    Uiso  ? S
   S4         1.0     0.519697     0.527209     0.562413    Uiso  ? S
   S5         1.0     0.024612     0.528210     0.409379    Uiso  ? S
   S6         1.0     0.524612     0.028210     0.409380    Uiso  ? S
   S7         1.0     0.104768     0.276544     0.658557    Uiso  ? S
   S8         1.0     0.604765     0.776544     0.658556    Uiso  ? S
   S9         1.0     0.441120     0.778126     0.485612    Uiso  ? S
   S10        1.0     0.941121     0.278126     0.485612    Uiso  ? S
   S11        1.0     0.021470     0.026370     0.735014    Uiso  ? S
   S12        1.0     0.521469     0.526369     0.735014    Uiso  ? S
   S13        1.0     0.189640     0.528455     0.312952    Uiso  ? S
   S14        1.0     0.689639     0.028451     0.312951    Uiso  ? S
   S15        1.0     0.269700     0.277235     0.562416    Uiso  ? S
   S16        1.0     0.769701     0.777235     0.562416    Uiso  ? S
   S17        1.0     0.274610     0.778230     0.409373    Uiso  ? S
   S18        1.0     0.774610     0.278229     0.409373    Uiso  ? S
   S19        1.0     0.354776     0.526550     0.658559    Uiso  ? S
   S20        1.0     0.854775     0.026550     0.658559    Uiso  ? S
   S21        1.0     0.191123     0.528082     0.485613    Uiso  ? S
   S22        1.0     0.691123     0.028081     0.485613    Uiso  ? S
   S23        1.0     0.271459     0.276372     0.735010    Uiso  ? S
   S24        1.0     0.771457     0.776371     0.735011    Uiso  ? S
   S25        1.0     0.439651     0.278471     0.312959    Uiso  ? S
   S26        1.0     0.939649     0.778471     0.312959    Uiso  ? S
   S27        1.0     0.019697     0.527209     0.562413    Uiso  ? S
   S28        1.0     0.519697     0.027209     0.562413    Uiso  ? S
   S29        1.0     0.024613     0.028211     0.409380    Uiso  ? S
   S30        1.0     0.524612     0.528211     0.409380    Uiso  ? S
   S31        1.0     0.104766     0.776543     0.658556    Uiso  ? S
   S32        1.0     0.604767     0.276544     0.658556    Uiso  ? S
   S33        1.0     0.441120     0.278127     0.485612    Uiso  ? S
   S34        1.0     0.941120     0.778127     0.485612    Uiso  ? S
   S35        1.0     0.021471     0.526369     0.735014    Uiso  ? S
   S36        1.0     0.521468     0.026370     0.735014    Uiso  ? S
   S37        1.0     0.189640     0.028453     0.312952    Uiso  ? S
   S38        1.0     0.689640     0.528451     0.312952    Uiso  ? S
   S39        1.0     0.269700     0.777235     0.562416    Uiso  ? S
   S40        1.0     0.769701     0.277235     0.562416    Uiso  ? S
   S41        1.0     0.274609     0.278228     0.409373    Uiso  ? S
   S42        1.0     0.774609     0.778229     0.409373    Uiso  ? S
   S43        1.0     0.354777     0.026550     0.658559    Uiso  ? S
   S44        1.0     0.854776     0.526550     0.658559    Uiso  ? S
   S45        1.0     0.191123     0.028082     0.485614    Uiso  ? S
   S46        1.0     0.691123     0.528082     0.485613    Uiso  ? S
   S47        1.0     0.271458     0.776371     0.735011    Uiso  ? S
   S48        1.0     0.771458     0.276372     0.735010    Uiso  ? S
