
#======================================================================
# CRYSTAL DATA
#----------------------------------------------------------------------
data_VESTA_phase_1

_chemical_name_common                  'Se_mo                                 '
_cell_length_a                         8.106899
_cell_length_b                         14.041900
_cell_length_c                         48.000000
_cell_angle_alpha                      90.000000
_cell_angle_beta                       90.000000
_cell_angle_gamma                      90.000000
_cell_volume                           5464.140775
_space_group_name_H-M_alt              'P 1'
_space_group_IT_number                 1

loop_
_space_group_symop_operation_xyz
   'x, y, z'

loop_
   _atom_site_label
   _atom_site_occupancy
   _atom_site_fract_x
   _atom_site_fract_y
   _atom_site_fract_z
   _atom_site_adp_type
   _atom_site_U_iso_or_equiv
   _atom_site_type_symbol
   Se1        1.0     0.000000     0.998180     0.223910    Uiso  ? Se
   Se2        1.0     0.500000     0.498180     0.223910    Uiso  ? Se
   Se3        1.0     0.000000     0.002393     0.365470    Uiso  ? Se
   Se4        1.0     0.500000     0.502393     0.365470    Uiso  ? Se
   Se5        1.0     0.250000     0.915519     0.286532    Uiso  ? Se
   Se6        1.0     0.750000     0.415518     0.286532    Uiso  ? Se
   Se7        1.0     0.250000     0.748180     0.223910    Uiso  ? Se
   Se8        1.0     0.750000     0.248180     0.223910    Uiso  ? Se
   Se9        1.0     0.250000     0.752393     0.365470    Uiso  ? Se
   Se10       1.0     0.750000     0.252393     0.365470    Uiso  ? Se
   Se11       1.0     -0.000000     0.165518     0.286532    Uiso  ? Se
   Se12       1.0     0.500000     0.665519     0.286532    Uiso  ? Se
   Se13       1.0     0.250000     0.248180     0.223910    Uiso  ? Se
   Se14       1.0     0.750000     0.748180     0.223910    Uiso  ? Se
   Se15       1.0     0.250000     0.252393     0.365470    Uiso  ? Se
   Se16       1.0     0.750000     0.752393     0.365470    Uiso  ? Se
   Se17       1.0     0.000000     0.665519     0.286532    Uiso  ? Se
   Se18       1.0     0.500000     0.165518     0.286532    Uiso  ? Se
   Se19       1.0     -0.000000     0.498180     0.223910    Uiso  ? Se
   Se20       1.0     0.500000     0.998180     0.223910    Uiso  ? Se
   Se21       1.0     0.000000     0.502393     0.365470    Uiso  ? Se
   Se22       1.0     0.500000     0.002393     0.365470    Uiso  ? Se
   Se23       1.0     0.250000     0.415518     0.286532    Uiso  ? Se
   Se24       1.0     0.750000     0.915519     0.286532    Uiso  ? Se
   In1        1.0     0.250000     0.919175     0.339181    Uiso  ? In
   In2        1.0     0.750000     0.419175     0.339181    Uiso  ? In
   In3        1.0     0.250000     0.081394     0.251647    Uiso  ? In
   In4        1.0     0.750000     0.581394     0.251647    Uiso  ? In
   In5        1.0     0.000000     0.169175     0.339181    Uiso  ? In
   In6        1.0     0.500000     0.669175     0.339181    Uiso  ? In
   In7        1.0     0.000000     0.331394     0.251647    Uiso  ? In
   In8        1.0     0.500000     0.831394     0.251647    Uiso  ? In
   In9        1.0     -0.000000     0.669175     0.339181    Uiso  ? In
   In10       1.0     0.500000     0.169175     0.339181    Uiso  ? In
   In11       1.0     0.000000     0.831394     0.251647    Uiso  ? In
   In12       1.0     0.500000     0.331394     0.251647    Uiso  ? In
   In13       1.0     0.250000     0.419175     0.339181    Uiso  ? In
   In14       1.0     0.750000     0.919175     0.339181    Uiso  ? In
   In15       1.0     0.250000     0.581394     0.251647    Uiso  ? In
   In16       1.0     0.750000     0.081394     0.251647    Uiso  ? In
