
#======================================================================
# CRYSTAL DATA
#----------------------------------------------------------------------
data_VESTA_phase_1

_chemical_name_common                  'S_mono_O_dn                           '
_cell_length_a                         13.508700
_cell_length_b                         7.955400
_cell_length_c                         20.161699
_cell_angle_alpha                      90.000000
_cell_angle_beta                       90.000000
_cell_angle_gamma                      89.999710
_cell_volume                           2166.719653
_space_group_name_H-M_alt              'P 1'
_space_group_IT_number                 1

loop_
_space_group_symop_operation_xyz
   'x, y, z'

loop_
   _atom_site_label
   _atom_site_occupancy
   _atom_site_fract_x
   _atom_site_fract_y
   _atom_site_fract_z
   _atom_site_adp_type
   _atom_site_U_iso_or_equiv
   _atom_site_type_symbol
   In1        1.0     0.076866     0.251040     0.590425    Uiso  ? In
   In2        1.0     0.576860     0.750989     0.590371    Uiso  ? In
   In3        1.0     0.167117     0.500766     0.788794    Uiso  ? In
   In4        1.0     0.667114     0.000725     0.788789    Uiso  ? In
   In5        1.0     0.326846     0.500983     0.590332    Uiso  ? In
   In6        1.0     0.826832     0.000931     0.590435    Uiso  ? In
   In7        1.0     0.417123     0.750756     0.788608    Uiso  ? In
   In8        1.0     0.917111     0.250827     0.788799    Uiso  ? In
   In9        1.0     0.076831     0.751045     0.590410    Uiso  ? In
   In10       1.0     0.576828     0.250988     0.590365    Uiso  ? In
   In11       1.0     0.167122     0.000777     0.788781    Uiso  ? In
   In12       1.0     0.667119     0.500796     0.788786    Uiso  ? In
   In13       1.0     0.326840     0.000983     0.590330    Uiso  ? In
   In14       1.0     0.826832     0.500936     0.590436    Uiso  ? In
   In15       1.0     0.417156     0.250767     0.788647    Uiso  ? In
   In16       1.0     0.917123     0.750837     0.788731    Uiso  ? In
   S1         1.0     0.494975     0.500989     0.534374    Uiso  ? S
   S2         1.0     0.994943     0.001028     0.534450    Uiso  ? S
   S3         1.0     0.082158     0.250863     0.709255    Uiso  ? S
   S4         1.0     0.582237     0.750826     0.709201    Uiso  ? S
   S5         1.0     0.999474     0.000813     0.847802    Uiso  ? S
   S6         1.0     0.499437     0.500803     0.847718    Uiso  ? S
   S7         1.0     0.244924     0.250976     0.534379    Uiso  ? S
   S8         1.0     0.744984     0.750933     0.534435    Uiso  ? S
   S9         1.0     0.332144     0.500825     0.709162    Uiso  ? S
   S10        1.0     0.832155     0.000851     0.709259    Uiso  ? S
   S11        1.0     0.249551     0.250780     0.847752    Uiso  ? S
   S12        1.0     0.749502     0.750782     0.847810    Uiso  ? S
   S13        1.0     0.494973     0.000945     0.534376    Uiso  ? S
   S14        1.0     0.994945     0.500992     0.534454    Uiso  ? S
   S15        1.0     0.082171     0.750860     0.709242    Uiso  ? S
   S16        1.0     0.582174     0.250830     0.709194    Uiso  ? S
   S17        1.0     0.999468     0.500855     0.847804    Uiso  ? S
   S18        1.0     0.499430     0.000734     0.847717    Uiso  ? S
   S19        1.0     0.244909     0.750970     0.534396    Uiso  ? S
   S20        1.0     0.744973     0.250932     0.534449    Uiso  ? S
   S21        1.0     0.332143     0.000815     0.709159    Uiso  ? S
   S22        1.0     0.832158     0.500843     0.709259    Uiso  ? S
   S23        1.0     0.249540     0.750787     0.847751    Uiso  ? S
   S24        1.0     0.749442     0.250779     0.847795    Uiso  ? S
