
#======================================================================
# CRYSTAL DATA
#----------------------------------------------------------------------
data_VESTA_phase_1

_chemical_name_common                  'Se_tri                                '
_cell_length_a                         8.258300
_cell_length_b                         14.024300
_cell_length_c                         50.000000
_cell_angle_alpha                      90.000000
_cell_angle_beta                       90.000000
_cell_angle_gamma                      90.000000
_cell_volume                           5790.843557
_space_group_name_H-M_alt              'P 1'
_space_group_IT_number                 1

loop_
_space_group_symop_operation_xyz
   'x, y, z'

loop_
   _atom_site_label
   _atom_site_occupancy
   _atom_site_fract_x
   _atom_site_fract_y
   _atom_site_fract_z
   _atom_site_adp_type
   _atom_site_U_iso_or_equiv
   _atom_site_type_symbol
   Se1        1.0     0.341819     0.888191     0.226072    Uiso  ? Se
   Se2        1.0     0.841805     0.388206     0.226070    Uiso  ? Se
   Se3        1.0     0.341282     0.054168     0.285666    Uiso  ? Se
   Se4        1.0     0.841271     0.554189     0.285666    Uiso  ? Se
   Se5        1.0     0.339045     0.890335     0.360881    Uiso  ? Se
   Se6        1.0     0.839043     0.390337     0.360881    Uiso  ? Se
   Se7        1.0     0.085177     0.969101     0.416821    Uiso  ? Se
   Se8        1.0     0.585177     0.469101     0.416821    Uiso  ? Se
   Se9        1.0     0.083762     0.135139     0.476111    Uiso  ? Se
   Se10       1.0     0.583759     0.635138     0.476109    Uiso  ? Se
   Se11       1.0     0.079149     0.972137     0.551303    Uiso  ? Se
   Se12       1.0     0.579147     0.472144     0.551295    Uiso  ? Se
   Se13       1.0     0.324647     0.891956     0.610424    Uiso  ? Se
   Se14       1.0     0.824647     0.391953     0.610424    Uiso  ? Se
   Se15       1.0     0.324249     0.058172     0.669792    Uiso  ? Se
   Se16       1.0     0.824230     0.558181     0.669791    Uiso  ? Se
   Se17       1.0     0.322782     0.895502     0.745154    Uiso  ? Se
   Se18       1.0     0.822793     0.395503     0.745152    Uiso  ? Se
   Se19       1.0     0.092129     0.138189     0.226075    Uiso  ? Se
   Se20       1.0     0.592126     0.638183     0.226073    Uiso  ? Se
   Se21       1.0     0.091621     0.304190     0.285642    Uiso  ? Se
   Se22       1.0     0.591623     0.804189     0.285642    Uiso  ? Se
   Se23       1.0     0.089313     0.140428     0.360892    Uiso  ? Se
   Se24       1.0     0.589312     0.640426     0.360892    Uiso  ? Se
   Se25       1.0     0.334992     0.719148     0.416845    Uiso  ? Se
   Se26       1.0     0.834991     0.219145     0.416846    Uiso  ? Se
   Se27       1.0     0.333742     0.885168     0.476112    Uiso  ? Se
   Se28       1.0     0.833720     0.385171     0.476112    Uiso  ? Se
   Se29       1.0     0.328973     0.722171     0.551276    Uiso  ? Se
   Se30       1.0     0.828972     0.222172     0.551275    Uiso  ? Se
   Se31       1.0     0.074723     0.141824     0.610445    Uiso  ? Se
   Se32       1.0     0.574723     0.641826     0.610444    Uiso  ? Se
   Se33       1.0     0.074184     0.308086     0.669783    Uiso  ? Se
   Se34       1.0     0.574186     0.808083     0.669783    Uiso  ? Se
   Se35       1.0     0.072828     0.145555     0.745143    Uiso  ? Se
   Se36       1.0     0.572829     0.645557     0.745141    Uiso  ? Se
   Se37       1.0     0.092126     0.638183     0.226073    Uiso  ? Se
   Se38       1.0     0.592127     0.138190     0.226076    Uiso  ? Se
   Se39       1.0     0.091621     0.804185     0.285639    Uiso  ? Se
   Se40       1.0     0.591622     0.304194     0.285643    Uiso  ? Se
   Se41       1.0     0.089311     0.640427     0.360891    Uiso  ? Se
   Se42       1.0     0.589311     0.140429     0.360892    Uiso  ? Se
   Se43       1.0     0.334991     0.219144     0.416846    Uiso  ? Se
   Se44       1.0     0.834993     0.719148     0.416845    Uiso  ? Se
   Se45       1.0     0.333733     0.385169     0.476111    Uiso  ? Se
   Se46       1.0     0.833746     0.885166     0.476112    Uiso  ? Se
   Se47       1.0     0.328973     0.222172     0.551275    Uiso  ? Se
   Se48       1.0     0.828972     0.722171     0.551275    Uiso  ? Se
   Se49       1.0     0.074723     0.641824     0.610445    Uiso  ? Se
   Se50       1.0     0.574735     0.141816     0.610446    Uiso  ? Se
   Se51       1.0     0.074189     0.808085     0.669784    Uiso  ? Se
   Se52       1.0     0.574193     0.308086     0.669783    Uiso  ? Se
   Se53       1.0     0.072830     0.645558     0.745141    Uiso  ? Se
   Se54       1.0     0.572829     0.145559     0.745142    Uiso  ? Se
   Se55       1.0     0.341808     0.388205     0.226069    Uiso  ? Se
   Se56       1.0     0.841818     0.888200     0.226070    Uiso  ? Se
   Se57       1.0     0.341275     0.554188     0.285667    Uiso  ? Se
   Se58       1.0     0.841286     0.054166     0.285667    Uiso  ? Se
   Se59       1.0     0.339042     0.390337     0.360882    Uiso  ? Se
   Se60       1.0     0.839053     0.890334     0.360881    Uiso  ? Se
   Se61       1.0     0.085177     0.469101     0.416821    Uiso  ? Se
   Se62       1.0     0.585178     0.969100     0.416822    Uiso  ? Se
   Se63       1.0     0.083780     0.635133     0.476110    Uiso  ? Se
   Se64       1.0     0.583768     0.135139     0.476110    Uiso  ? Se
   Se65       1.0     0.079148     0.472141     0.551297    Uiso  ? Se
   Se66       1.0     0.579150     0.972141     0.551298    Uiso  ? Se
   Se67       1.0     0.324647     0.391954     0.610425    Uiso  ? Se
   Se68       1.0     0.824653     0.891956     0.610424    Uiso  ? Se
   Se69       1.0     0.324232     0.558179     0.669791    Uiso  ? Se
   Se70       1.0     0.824252     0.058169     0.669793    Uiso  ? Se
   Se71       1.0     0.322792     0.395503     0.745152    Uiso  ? Se
   Se72       1.0     0.822781     0.895500     0.745155    Uiso  ? Se
   In1        1.0     0.342199     0.220425     0.252575    Uiso  ? In
   In2        1.0     0.842192     0.720419     0.252572    Uiso  ? In
   In3        1.0     0.339371     0.058579     0.336453    Uiso  ? In
   In4        1.0     0.839370     0.558579     0.336453    Uiso  ? In
   In5        1.0     0.084955     0.301366     0.443324    Uiso  ? In
   In6        1.0     0.584960     0.801364     0.443323    Uiso  ? In
   In7        1.0     0.078853     0.140282     0.526884    Uiso  ? In
   In8        1.0     0.578853     0.640294     0.526882    Uiso  ? In
   In9        1.0     0.324655     0.224195     0.636840    Uiso  ? In
   In10       1.0     0.824653     0.724201     0.636840    Uiso  ? In
   In11       1.0     0.322823     0.063625     0.720539    Uiso  ? In
   In12       1.0     0.822824     0.563627     0.720537    Uiso  ? In
   In13       1.0     0.091839     0.470443     0.252572    Uiso  ? In
   In14       1.0     0.591850     0.970442     0.252573    Uiso  ? In
   In15       1.0     0.089082     0.308576     0.336422    Uiso  ? In
   In16       1.0     0.589093     0.808573     0.336421    Uiso  ? In
   In17       1.0     0.335112     0.051333     0.443302    Uiso  ? In
   In18       1.0     0.835113     0.551337     0.443301    Uiso  ? In
   In19       1.0     0.329102     0.890335     0.526884    Uiso  ? In
   In20       1.0     0.829107     0.390334     0.526883    Uiso  ? In
   In21       1.0     0.074608     0.474127     0.636890    Uiso  ? In
   In22       1.0     0.574613     0.974121     0.636890    Uiso  ? In
   In23       1.0     0.072815     0.313652     0.720524    Uiso  ? In
   In24       1.0     0.572805     0.813657     0.720525    Uiso  ? In
   In25       1.0     0.091851     0.970441     0.252572    Uiso  ? In
   In26       1.0     0.591835     0.470443     0.252573    Uiso  ? In
   In27       1.0     0.089092     0.808574     0.336418    Uiso  ? In
   In28       1.0     0.589081     0.308577     0.336422    Uiso  ? In
   In29       1.0     0.335112     0.551336     0.443301    Uiso  ? In
   In30       1.0     0.835113     0.051334     0.443302    Uiso  ? In
   In31       1.0     0.329105     0.390334     0.526882    Uiso  ? In
   In32       1.0     0.829114     0.890337     0.526883    Uiso  ? In
   In33       1.0     0.074615     0.974125     0.636890    Uiso  ? In
   In34       1.0     0.574612     0.474128     0.636889    Uiso  ? In
   In35       1.0     0.072803     0.813659     0.720525    Uiso  ? In
   In36       1.0     0.572818     0.313656     0.720524    Uiso  ? In
   In37       1.0     0.342203     0.720413     0.252573    Uiso  ? In
   In38       1.0     0.842200     0.220424     0.252575    Uiso  ? In
   In39       1.0     0.339371     0.558579     0.336453    Uiso  ? In
   In40       1.0     0.839369     0.058579     0.336454    Uiso  ? In
   In41       1.0     0.084960     0.801365     0.443323    Uiso  ? In
   In42       1.0     0.584954     0.301366     0.443324    Uiso  ? In
   In43       1.0     0.078856     0.640291     0.526883    Uiso  ? In
   In44       1.0     0.578854     0.140290     0.526883    Uiso  ? In
   In45       1.0     0.324653     0.724198     0.636840    Uiso  ? In
   In46       1.0     0.824654     0.224195     0.636842    Uiso  ? In
   In47       1.0     0.322824     0.563628     0.720537    Uiso  ? In
   In48       1.0     0.822822     0.063622     0.720539    Uiso  ? In
