
#======================================================================
# CRYSTAL DATA
#----------------------------------------------------------------------
data_VESTA_phase_1

_chemical_name_common                  'S_tri_O_dn                            '
_cell_length_a                         13.509800
_cell_length_b                         7.955700
_cell_length_c                         47.756500
_cell_angle_alpha                      90.000000
_cell_angle_beta                       90.000000
_cell_angle_gamma                      90.000099
_cell_volume                           5132.864561
_space_group_name_H-M_alt              'P 1'
_space_group_IT_number                 1

loop_
_space_group_symop_operation_xyz
   'x, y, z'

loop_
   _atom_site_label
   _atom_site_occupancy
   _atom_site_fract_x
   _atom_site_fract_y
   _atom_site_fract_z
   _atom_site_adp_type
   _atom_site_U_iso_or_equiv
   _atom_site_type_symbol
   In1        1.0     0.252058     0.750968     0.256763    Uiso  ? In
   In2        1.0     0.752055     0.250967     0.256758    Uiso  ? In
   In3        1.0     0.421823     0.750697     0.447055    Uiso  ? In
   In4        1.0     0.921815     0.250706     0.447057    Uiso  ? In
   In5        1.0     0.087531     0.250139     0.637247    Uiso  ? In
   In6        1.0     0.587550     0.750197     0.637282    Uiso  ? In
   In7        1.0     0.165233     0.000839     0.340332    Uiso  ? In
   In8        1.0     0.665232     0.500850     0.340326    Uiso  ? In
   In9        1.0     0.332712     0.000386     0.530563    Uiso  ? In
   In10       1.0     0.832705     0.500398     0.530558    Uiso  ? In
   In11       1.0     0.496795     0.999970     0.721032    Uiso  ? In
   In12       1.0     0.996763     0.499963     0.720962    Uiso  ? In
   In13       1.0     0.252058     0.250969     0.256763    Uiso  ? In
   In14       1.0     0.752055     0.750968     0.256758    Uiso  ? In
   In15       1.0     0.421825     0.250705     0.447055    Uiso  ? In
   In16       1.0     0.921816     0.750709     0.447057    Uiso  ? In
   In17       1.0     0.087532     0.750127     0.637247    Uiso  ? In
   In18       1.0     0.587549     0.250136     0.637283    Uiso  ? In
   In19       1.0     0.165232     0.500838     0.340332    Uiso  ? In
   In20       1.0     0.665232     0.000850     0.340326    Uiso  ? In
   In21       1.0     0.332716     0.500389     0.530564    Uiso  ? In
   In22       1.0     0.832709     0.000399     0.530556    Uiso  ? In
   In23       1.0     0.496712     0.499973     0.721028    Uiso  ? In
   In24       1.0     0.996686     0.999968     0.720957    Uiso  ? In
   In25       1.0     0.502036     0.500956     0.256754    Uiso  ? In
   In26       1.0     0.002034     0.000953     0.256754    Uiso  ? In
   In27       1.0     0.171839     0.000720     0.447055    Uiso  ? In
   In28       1.0     0.671838     0.500761     0.447045    Uiso  ? In
   In29       1.0     0.337562     0.000153     0.637296    Uiso  ? In
   In30       1.0     0.837513     0.500141     0.637254    Uiso  ? In
   In31       1.0     0.415194     0.750906     0.340301    Uiso  ? In
   In32       1.0     0.915192     0.250916     0.340297    Uiso  ? In
   In33       1.0     0.082663     0.250463     0.530489    Uiso  ? In
   In34       1.0     0.582655     0.750416     0.530480    Uiso  ? In
   In35       1.0     0.246726     0.249925     0.721011    Uiso  ? In
   In36       1.0     0.746724     0.749934     0.720993    Uiso  ? In
   In37       1.0     0.502035     0.000956     0.256754    Uiso  ? In
   In38       1.0     0.002034     0.500953     0.256754    Uiso  ? In
   In39       1.0     0.171834     0.500719     0.447054    Uiso  ? In
   In40       1.0     0.671836     0.000759     0.447044    Uiso  ? In
   In41       1.0     0.337587     0.500150     0.637297    Uiso  ? In
   In42       1.0     0.837596     0.000130     0.637254    Uiso  ? In
   In43       1.0     0.415194     0.250905     0.340301    Uiso  ? In
   In44       1.0     0.915192     0.750917     0.340297    Uiso  ? In
   In45       1.0     0.082661     0.750462     0.530489    Uiso  ? In
   In46       1.0     0.582654     0.250408     0.530480    Uiso  ? In
   In47       1.0     0.246724     0.750016     0.721013    Uiso  ? In
   In48       1.0     0.746725     0.250025     0.720993    Uiso  ? In
   S1         1.0     0.334020     0.500963     0.233374    Uiso  ? S
   S2         1.0     0.834024     0.000963     0.233370    Uiso  ? S
   S3         1.0     0.003648     0.000708     0.423943    Uiso  ? S
   S4         1.0     0.503642     0.500703     0.423937    Uiso  ? S
   S5         1.0     0.169417     0.000135     0.614147    Uiso  ? S
   S6         1.0     0.669317     0.500162     0.614151    Uiso  ? S
   S7         1.0     0.249316     0.750879     0.307155    Uiso  ? S
   S8         1.0     0.749314     0.250891     0.307149    Uiso  ? S
   S9         1.0     0.417190     0.750453     0.497447    Uiso  ? S
   S10        1.0     0.917195     0.250469     0.497449    Uiso  ? S
   S11        1.0     0.081744     0.249984     0.687635    Uiso  ? S
   S12        1.0     0.581708     0.750000     0.687670    Uiso  ? S
   S13        1.0     0.332853     0.500887     0.365407    Uiso  ? S
   S14        1.0     0.832851     0.000898     0.365403    Uiso  ? S
   S15        1.0     0.000328     0.000442     0.555649    Uiso  ? S
   S16        1.0     0.500338     0.500402     0.555646    Uiso  ? S
   S17        1.0     0.164356     0.999976     0.746135    Uiso  ? S
   S18        1.0     0.664449     0.499982     0.746149    Uiso  ? S
   S19        1.0     0.334020     0.000962     0.233374    Uiso  ? S
   S20        1.0     0.834024     0.500963     0.233370    Uiso  ? S
   S21        1.0     0.003644     0.500706     0.423943    Uiso  ? S
   S22        1.0     0.503640     0.000703     0.423938    Uiso  ? S
   S23        1.0     0.169436     0.500135     0.614150    Uiso  ? S
   S24        1.0     0.669370     0.000162     0.614154    Uiso  ? S
   S25        1.0     0.249316     0.250880     0.307155    Uiso  ? S
   S26        1.0     0.749314     0.750891     0.307149    Uiso  ? S
   S27        1.0     0.417190     0.250451     0.497447    Uiso  ? S
   S28        1.0     0.917194     0.750465     0.497448    Uiso  ? S
   S29        1.0     0.081744     0.750020     0.687636    Uiso  ? S
   S30        1.0     0.581707     0.250027     0.687670    Uiso  ? S
   S31        1.0     0.332854     0.000888     0.365407    Uiso  ? S
   S32        1.0     0.832851     0.500898     0.365402    Uiso  ? S
   S33        1.0     0.000328     0.500441     0.555649    Uiso  ? S
   S34        1.0     0.500336     0.000401     0.555647    Uiso  ? S
   S35        1.0     0.164420     0.499971     0.746133    Uiso  ? S
   S36        1.0     0.664524     0.999984     0.746148    Uiso  ? S
   S37        1.0     0.084041     0.750953     0.233376    Uiso  ? S
   S38        1.0     0.584035     0.250956     0.233374    Uiso  ? S
   S39        1.0     0.253645     0.750714     0.423936    Uiso  ? S
   S40        1.0     0.753655     0.250746     0.423929    Uiso  ? S
   S41        1.0     0.419366     0.750160     0.614165    Uiso  ? S
   S42        1.0     0.919359     0.250163     0.614125    Uiso  ? S
   S43        1.0     0.499339     0.500909     0.307147    Uiso  ? S
   S44        1.0     0.999343     0.000911     0.307147    Uiso  ? S
   S45        1.0     0.167270     0.000499     0.497447    Uiso  ? S
   S46        1.0     0.667272     0.500479     0.497437    Uiso  ? S
   S47        1.0     0.331774     0.000009     0.687680    Uiso  ? S
   S48        1.0     0.831714     0.500012     0.687638    Uiso  ? S
   S49        1.0     0.082804     0.750846     0.365404    Uiso  ? S
   S50        1.0     0.582812     0.250854     0.365402    Uiso  ? S
   S51        1.0     0.250229     0.750391     0.555658    Uiso  ? S
   S52        1.0     0.750215     0.250395     0.555651    Uiso  ? S
   S53        1.0     0.414431     0.750004     0.746162    Uiso  ? S
   S54        1.0     0.914459     0.249998     0.746113    Uiso  ? S
   S55        1.0     0.084041     0.250953     0.233376    Uiso  ? S
   S56        1.0     0.584035     0.750956     0.233373    Uiso  ? S
   S57        1.0     0.253647     0.250713     0.423937    Uiso  ? S
   S58        1.0     0.753655     0.750747     0.423929    Uiso  ? S
   S59        1.0     0.419367     0.250141     0.614165    Uiso  ? S
   S60        1.0     0.919362     0.750115     0.614124    Uiso  ? S
   S61        1.0     0.499339     0.000908     0.307147    Uiso  ? S
   S62        1.0     0.999343     0.500910     0.307147    Uiso  ? S
   S63        1.0     0.167275     0.500499     0.497446    Uiso  ? S
   S64        1.0     0.667274     0.000479     0.497437    Uiso  ? S
   S65        1.0     0.331730     0.500009     0.687680    Uiso  ? S
   S66        1.0     0.831688     0.000012     0.687637    Uiso  ? S
   S67        1.0     0.082804     0.250846     0.365404    Uiso  ? S
   S68        1.0     0.582812     0.750855     0.365402    Uiso  ? S
   S69        1.0     0.250230     0.250391     0.555658    Uiso  ? S
   S70        1.0     0.750216     0.750400     0.555651    Uiso  ? S
   S71        1.0     0.414430     0.249946     0.746162    Uiso  ? S
   S72        1.0     0.914460     0.749945     0.746112    Uiso  ? S
