#======================================================================

# CRYSTAL DATA

#----------------------------------------------------------------------

data_VESTA_phase_1


_chemical_name_common                  'CONTCAR                               '
_cell_length_a                         8.83388
_cell_length_b                         14.98850
_cell_length_c                         48.00000
_cell_angle_alpha                      90
_cell_angle_beta                       90
_cell_angle_gamma                      90
_space_group_name_H-M_alt              'P 1'
_space_group_IT_number                 1

loop_
_space_group_symop_operation_xyz
   'x, y, z'

loop_
   _atom_site_label
   _atom_site_occupancy
   _atom_site_fract_x
   _atom_site_fract_y
   _atom_site_fract_z
   _atom_site_adp_type
   _atom_site_B_iso_or_equiv
   _atom_site_type_symbol
   Te1        1.0     0.000299      0.996310      0.210853     Biso  1.000000 Te
   Te2        1.0     0.266164      0.250888      0.214729     Biso  1.000000 Te
   Te3        1.0     0.000125      0.005246      0.365748     Biso  1.000000 Te
   Te4        1.0     0.245410      0.257526      0.366281     Biso  1.000000 Te
   Te5        1.0     0.000234      0.164199      0.279936     Biso  1.000000 Te
   Te6        1.0     0.253847      0.411577      0.279960     Biso  1.000000 Te
   Te7        1.0    -0.000001      0.334475      0.424615     Biso  1.000000 Te
   Te8        1.0     0.250184      0.084289      0.424242     Biso  1.000000 Te
   Te9        1.0     0.999318      0.335505      0.577359     Biso  1.000000 Te
   Te10       1.0     0.249406      0.085518      0.577238     Biso  1.000000 Te
   Te11       1.0    -0.000057      0.997570      0.491762     Biso  1.000000 Te
   Te12       1.0     0.250043      0.247633      0.491926     Biso  1.000000 Te
   Te13       1.0     0.500316      0.000704      0.213126     Biso  1.000000 Te
   Te14       1.0     0.734982      0.250874      0.214714     Biso  1.000000 Te
   Te15       1.0     0.500117      0.002162      0.366995     Biso  1.000000 Te
   Te16       1.0     0.754896      0.257575      0.366269     Biso  1.000000 Te
   Te17       1.0     0.500261      0.134935      0.285240     Biso  1.000000 Te
   Te18       1.0     0.747091      0.411580      0.279952     Biso  1.000000 Te
   Te19       1.0     0.500025      0.334137      0.424363     Biso  1.000000 Te
   Te20       1.0     0.749864      0.084305      0.424237     Biso  1.000000 Te
   Te21       1.0     0.499309      0.335658      0.577339     Biso  1.000000 Te
   Te22       1.0     0.749297      0.085514      0.577242     Biso  1.000000 Te
   Te23       1.0     0.499939      0.997577      0.491766     Biso  1.000000 Te
   Te24       1.0     0.749806      0.247624      0.491926     Biso  1.000000 Te
   Te25       1.0     0.000366      0.499180      0.213189     Biso  1.000000 Te
   Te26       1.0     0.249648      0.749409      0.212320     Biso  1.000000 Te
   Te27       1.0     0.000115      0.504548      0.365320     Biso  1.000000 Te
   Te28       1.0     0.251289      0.755668      0.365605     Biso  1.000000 Te
   Te29       1.0     0.000310      0.660707      0.280980     Biso  1.000000 Te
   Te30       1.0     0.247240      0.910793      0.280162     Biso  1.000000 Te
   Te31       1.0     0.000026      0.833666      0.424242     Biso  1.000000 Te
   Te32       1.0     0.248964      0.583943      0.424405     Biso  1.000000 Te
   Te33       1.0     0.999290      0.835906      0.577353     Biso  1.000000 Te
   Te34       1.0     0.249513      0.585810      0.577475     Biso  1.000000 Te
   Te35       1.0    -0.000063      0.497602      0.492124     Biso  1.000000 Te
   Te36       1.0     0.250463      0.747769      0.491952     Biso  1.000000 Te
   Te37       1.0     0.500307      0.502940      0.210615     Biso  1.000000 Te
   Te38       1.0     0.751211      0.749362      0.212337     Biso  1.000000 Te
   Te39       1.0     0.500100      0.506290      0.366270     Biso  1.000000 Te
   Te40       1.0     0.749140      0.755660      0.365591     Biso  1.000000 Te
   Te41       1.0     0.500262      0.664179      0.279948     Biso  1.000000 Te
   Te42       1.0     0.753371      0.910855      0.280156     Biso  1.000000 Te
   Te43       1.0     0.500047      0.832728      0.424511     Biso  1.000000 Te
   Te44       1.0     0.751118      0.583952      0.424407     Biso  1.000000 Te
   Te45       1.0     0.499277      0.835755      0.577240     Biso  1.000000 Te
   Te46       1.0     0.749134      0.585858      0.577463     Biso  1.000000 Te
   Te47       1.0     0.499879      0.497563      0.491982     Biso  1.000000 Te
   Te48       1.0     0.749415      0.747775      0.491951     Biso  1.000000 Te
   In1        1.0     0.999333      0.004054      0.548951     Biso  1.000000 In
   In2        1.0     0.249351      0.254018      0.549079     Biso  1.000000 In
   In3        1.0     0.000172      0.172966      0.337469     Biso  1.000000 In
   In4        1.0     0.253083      0.425331      0.337568     Biso  1.000000 In
   In5        1.0     0.000043      0.165591      0.455401     Biso  1.000000 In
   In6        1.0     0.250126      0.415724      0.455497     Biso  1.000000 In
   In7        1.0     0.000589      0.327448      0.241779     Biso  1.000000 In
   In8        1.0     0.241816      0.076881      0.242777     Biso  1.000000 In
   In9        1.0     0.499343      0.004005      0.548938     Biso  1.000000 In
   In10       1.0     0.749257      0.254013      0.549080     Biso  1.000000 In
   In11       1.0     0.500187      0.174406      0.341343     Biso  1.000000 In
   In12       1.0     0.747113      0.425391      0.337561     Biso  1.000000 In
   In13       1.0     0.500044      0.165579      0.455422     Biso  1.000000 In
   In14       1.0     0.749912      0.415740      0.455504     Biso  1.000000 In
   In15       1.0     0.500585      0.298316      0.256046     Biso  1.000000 In
   In16       1.0     0.758791      0.076897      0.242763     Biso  1.000000 In
   In17       1.0     0.999321      0.504190      0.549264     Biso  1.000000 In
   In18       1.0     0.248944      0.753996      0.549100     Biso  1.000000 In
   In19       1.0     0.000274      0.674322      0.338299     Biso  1.000000 In
   In20       1.0     0.250421      0.924648      0.337568     Biso  1.000000 In
   In21       1.0     0.000063      0.665790      0.455788     Biso  1.000000 In
   In22       1.0     0.249979      0.915476      0.455207     Biso  1.000000 In
   In23       1.0     0.000419      0.829347      0.243599     Biso  1.000000 In
   In24       1.0     0.248134      0.583582      0.244115     Biso  1.000000 In
   In25       1.0     0.499336      0.504183      0.549177     Biso  1.000000 In
   In26       1.0     0.749616      0.754045      0.549096     Biso  1.000000 In
   In27       1.0     0.500188      0.673556      0.337516     Biso  1.000000 In
   In28       1.0     0.749818      0.924661      0.337562     Biso  1.000000 In
   In29       1.0     0.500064      0.664664      0.455349     Biso  1.000000 In
   In30       1.0     0.750116      0.915495      0.455208     Biso  1.000000 In
   In31       1.0     0.500413      0.831457      0.243230     Biso  1.000000 In
   In32       1.0     0.752511      0.583527      0.244116     Biso  1.000000 In
   H1         1.0     0.500323      0.594265      0.190185     Biso  1.000000 H
