#======================================================================

# CRYSTAL DATA

#----------------------------------------------------------------------

data_VESTA_phase_1


_chemical_name_common                  'CONTCAR                               '
_cell_length_a                         8.27050
_cell_length_b                         14.04400
_cell_length_c                         48.00000
_cell_angle_alpha                      90
_cell_angle_beta                       90
_cell_angle_gamma                      90
_space_group_name_H-M_alt              'P 1'
_space_group_IT_number                 1

loop_
_space_group_symop_operation_xyz
   'x, y, z'

loop_
   _atom_site_label
   _atom_site_occupancy
   _atom_site_fract_x
   _atom_site_fract_y
   _atom_site_fract_z
   _atom_site_adp_type
   _atom_site_B_iso_or_equiv
   _atom_site_type_symbol
   Se1        1.0     0.000239      0.999667      0.224185     Biso  1.000000 Se
   Se2        1.0     0.261356      0.251415      0.227508     Biso  1.000000 Se
   Se3        1.0     0.000077      0.004003      0.366009     Biso  1.000000 Se
   Se4        1.0     0.246132      0.256068      0.366552     Biso  1.000000 Se
   Se5        1.0     0.000334      0.166366      0.287574     Biso  1.000000 Se
   Se6        1.0     0.256660      0.416080      0.287135     Biso  1.000000 Se
   Se7        1.0     0.000015      0.332356      0.423873     Biso  1.000000 Se
   Se8        1.0     0.250238      0.082509      0.423636     Biso  1.000000 Se
   Se9        1.0     0.999695      0.334905      0.563883     Biso  1.000000 Se
   Se10       1.0     0.249383      0.084636      0.563735     Biso  1.000000 Se
   Se11       1.0     0.999718      0.997877      0.485241     Biso  1.000000 Se
   Se12       1.0     0.249652      0.247955      0.485457     Biso  1.000000 Se
   Se13       1.0     0.500331      0.001740      0.225858     Biso  1.000000 Se
   Se14       1.0     0.739150      0.251446      0.227506     Biso  1.000000 Se
   Se15       1.0     0.500087      0.999909      0.367102     Biso  1.000000 Se
   Se16       1.0     0.754277      0.256076      0.366563     Biso  1.000000 Se
   Se17       1.0     0.500248      0.143562      0.291795     Biso  1.000000 Se
   Se18       1.0     0.743753      0.416076      0.287143     Biso  1.000000 Se
   Se19       1.0     0.500013      0.332176      0.423789     Biso  1.000000 Se
   Se20       1.0     0.749601      0.082515      0.423635     Biso  1.000000 Se
   Se21       1.0     0.499687      0.334955      0.563871     Biso  1.000000 Se
   Se22       1.0     0.749460      0.084632      0.563740     Biso  1.000000 Se
   Se23       1.0     0.499726      0.997874      0.485300     Biso  1.000000 Se
   Se24       1.0     0.749904      0.247820      0.485464     Biso  1.000000 Se
   Se25       1.0     0.000283      0.500615      0.226500     Biso  1.000000 Se
   Se26       1.0     0.249534      0.751678      0.225365     Biso  1.000000 Se
   Se27       1.0     0.000157      0.502345      0.365369     Biso  1.000000 Se
   Se28       1.0     0.251332      0.754394      0.366058     Biso  1.000000 Se
   Se29       1.0     0.000181      0.667020      0.288554     Biso  1.000000 Se
   Se30       1.0     0.247876      0.914471      0.287508     Biso  1.000000 Se
   Se31       1.0     0.999946      0.832050      0.423551     Biso  1.000000 Se
   Se32       1.0     0.249498      0.581832      0.423673     Biso  1.000000 Se
   Se33       1.0     0.999715      0.834822      0.563713     Biso  1.000000 Se
   Se34       1.0     0.249672      0.585165      0.563839     Biso  1.000000 Se
   Se35       1.0     0.999940      0.498191      0.485498     Biso  1.000000 Se
   Se36       1.0     0.249976      0.748237      0.485255     Biso  1.000000 Se
   Se37       1.0     0.500194      0.506573      0.225291     Biso  1.000000 Se
   Se38       1.0     0.750893      0.751699      0.225363     Biso  1.000000 Se
   Se39       1.0     0.500100      0.505014      0.366331     Biso  1.000000 Se
   Se40       1.0     0.749068      0.754403      0.366053     Biso  1.000000 Se
   Se41       1.0     0.500307      0.666960      0.287477     Biso  1.000000 Se
   Se42       1.0     0.752612      0.914454      0.287513     Biso  1.000000 Se
   Se43       1.0     0.499951      0.831516      0.423689     Biso  1.000000 Se
   Se44       1.0     0.750510      0.581823      0.423673     Biso  1.000000 Se
   Se45       1.0     0.499739      0.834696      0.563691     Biso  1.000000 Se
   Se46       1.0     0.749644      0.585162      0.563839     Biso  1.000000 Se
   Se47       1.0     0.499965      0.498062      0.485442     Biso  1.000000 Se
   Se48       1.0     0.749939      0.748237      0.485253     Biso  1.000000 Se
   In1        1.0     0.999438      0.002869      0.538363     Biso  1.000000 In
   In2        1.0     0.249724      0.252956      0.538565     Biso  1.000000 In
   In3        1.0     0.000171      0.171660      0.340809     Biso  1.000000 In
   In4        1.0     0.253536      0.423054      0.340696     Biso  1.000000 In
   In5        1.0     0.999924      0.164306      0.451468     Biso  1.000000 In
   In6        1.0     0.249983      0.414354      0.451597     Biso  1.000000 In
   In7        1.0     0.000244      0.330389      0.252895     Biso  1.000000 In
   In8        1.0     0.244386      0.078965      0.252898     Biso  1.000000 In
   In9        1.0     0.499453      0.002831      0.538409     Biso  1.000000 In
   In10       1.0     0.749686      0.252955      0.538570     Biso  1.000000 In
   In11       1.0     0.500213      0.171614      0.344542     Biso  1.000000 In
   In12       1.0     0.746728      0.423070      0.340706     Biso  1.000000 In
   In13       1.0     0.499906      0.164416      0.451635     Biso  1.000000 In
   In14       1.0     0.750060      0.414331      0.451602     Biso  1.000000 In
   In15       1.0     0.500246      0.303793      0.263043     Biso  1.000000 In
   In16       1.0     0.756204      0.079015      0.252921     Biso  1.000000 In
   In17       1.0     0.999663      0.503039      0.538593     Biso  1.000000 In
   In18       1.0     0.249611      0.752952      0.538358     Biso  1.000000 In
   In19       1.0     0.000198      0.672575      0.341891     Biso  1.000000 In
   In20       1.0     0.249822      0.922681      0.340764     Biso  1.000000 In
   In21       1.0     0.000006      0.664396      0.451495     Biso  1.000000 In
   In22       1.0     0.249945      0.914363      0.451283     Biso  1.000000 In
   In23       1.0     0.000241      0.833878      0.253135     Biso  1.000000 In
   In24       1.0     0.244267      0.588304      0.254383     Biso  1.000000 In
   In25       1.0     0.499656      0.503087      0.538570     Biso  1.000000 In
   In26       1.0     0.749869      0.752939      0.538353     Biso  1.000000 In
   In27       1.0     0.500193      0.672600      0.340818     Biso  1.000000 In
   In28       1.0     0.750343      0.922683      0.340764     Biso  1.000000 In
   In29       1.0     0.500013      0.663929      0.451396     Biso  1.000000 In
   In30       1.0     0.749885      0.914368      0.451282     Biso  1.000000 In
   In31       1.0     0.500234      0.833945      0.253246     Biso  1.000000 In
   In32       1.0     0.756202      0.588268      0.254361     Biso  1.000000 In
   H1         1.0     0.500160      0.578242      0.202507     Biso  1.000000 H
