#======================================================================

# CRYSTAL DATA

#----------------------------------------------------------------------

data_VESTA_phase_1


_chemical_name_common                  'CONTCAR                               '
_cell_length_a                         7.92600
_cell_length_b                         13.50840
_cell_length_c                         48.00000
_cell_angle_alpha                      90
_cell_angle_beta                       90
_cell_angle_gamma                      90
_space_group_name_H-M_alt              'P 1'
_space_group_IT_number                 1

loop_
_space_group_symop_operation_xyz
   'x, y, z'

loop_
   _atom_site_label
   _atom_site_occupancy
   _atom_site_fract_x
   _atom_site_fract_y
   _atom_site_fract_z
   _atom_site_adp_type
   _atom_site_B_iso_or_equiv
   _atom_site_type_symbol
   S1         1.0     0.000333      0.003143      0.233261     Biso  1.000000 S
   S2         1.0     0.252465      0.252469      0.234694     Biso  1.000000 S
   S3         1.0     0.000114      0.003024      0.365701     Biso  1.000000 S
   S4         1.0     0.248491      0.253149      0.365951     Biso  1.000000 S
   S5         1.0     0.000316      0.168613      0.292388     Biso  1.000000 S
   S6         1.0     0.254078      0.419535      0.292669     Biso  1.000000 S
   S7         1.0    -0.000094      0.332961      0.423149     Biso  1.000000 S
   S8         1.0     0.249975      0.083085      0.423087     Biso  1.000000 S
   S9         1.0     0.999625      0.334003      0.554668     Biso  1.000000 S
   S10        1.0     0.249590      0.084121      0.554693     Biso  1.000000 S
   S11        1.0    -0.000158      0.999574      0.481145     Biso  1.000000 S
   S12        1.0     0.249876      0.249574      0.481129     Biso  1.000000 S
   S13        1.0     0.500369      0.002164      0.234023     Biso  1.000000 S
   S14        1.0     0.748149      0.252452      0.234697     Biso  1.000000 S
   S15        1.0     0.500107      0.001433      0.366099     Biso  1.000000 S
   S16        1.0     0.751760      0.253145      0.365950     Biso  1.000000 S
   S17        1.0     0.500287      0.160770      0.293882     Biso  1.000000 S
   S18        1.0     0.746416      0.419552      0.292667     Biso  1.000000 S
   S19        1.0     0.499910      0.332951      0.423079     Biso  1.000000 S
   S20        1.0     0.749834      0.083078      0.423086     Biso  1.000000 S
   S21        1.0     0.499625      0.334072      0.554654     Biso  1.000000 S
   S22        1.0     0.749703      0.084125      0.554694     Biso  1.000000 S
   S23        1.0     0.499856      0.999645      0.481190     Biso  1.000000 S
   S24        1.0     0.749817      0.249579      0.481129     Biso  1.000000 S
   S25        1.0     0.000288      0.503790      0.235754     Biso  1.000000 S
   S26        1.0     0.249418      0.750364      0.234988     Biso  1.000000 S
   S27        1.0     0.000099      0.499989      0.366290     Biso  1.000000 S
   S28        1.0     0.253616      0.754447      0.366482     Biso  1.000000 S
   S29        1.0     0.000311      0.675285      0.295418     Biso  1.000000 S
   S30        1.0     0.249836      0.918138      0.292438     Biso  1.000000 S
   S31        1.0     0.999914      0.832935      0.423137     Biso  1.000000 S
   S32        1.0     0.249577      0.583180      0.423129     Biso  1.000000 S
   S33        1.0     0.999634      0.834104      0.554729     Biso  1.000000 S
   S34        1.0     0.249699      0.584002      0.554689     Biso  1.000000 S
   S35        1.0     0.999848      0.499492      0.481162     Biso  1.000000 S
   S36        1.0     0.249841      0.749604      0.481199     Biso  1.000000 S
   S37        1.0     0.500315      0.501736      0.238616     Biso  1.000000 S
   S38        1.0     0.751309      0.750385      0.234991     Biso  1.000000 S
   S39        1.0     0.500109      0.502804      0.366429     Biso  1.000000 S
   S40        1.0     0.746607      0.754456      0.366482     Biso  1.000000 S
   S41        1.0     0.500278      0.667096      0.292841     Biso  1.000000 S
   S42        1.0     0.750791      0.918127      0.292440     Biso  1.000000 S
   S43        1.0     0.499899      0.833135      0.423271     Biso  1.000000 S
   S44        1.0     0.750229      0.583188      0.423129     Biso  1.000000 S
   S45        1.0     0.499638      0.834089      0.554713     Biso  1.000000 S
   S46        1.0     0.749548      0.584001      0.554688     Biso  1.000000 S
   S47        1.0     0.499845      0.499574      0.481090     Biso  1.000000 S
   S48        1.0     0.749857      0.749598      0.481199     Biso  1.000000 S
   In1        1.0     0.999629      0.001821      0.531565     Biso  1.000000 In
   In2        1.0     0.249633      0.251846      0.531524     Biso  1.000000 In
   In3        1.0     0.000131      0.170454      0.342871     Biso  1.000000 In
   In4        1.0     0.252028      0.420772      0.343398     Biso  1.000000 In
   In5        1.0     0.999887      0.165551      0.448496     Biso  1.000000 In
   In6        1.0     0.249902      0.415584      0.448491     Biso  1.000000 In
   In7        1.0     0.000301      0.333346      0.259830     Biso  1.000000 In
   In8        1.0     0.248700      0.082884      0.259257     Biso  1.000000 In
   In9        1.0     0.499645      0.001880      0.531589     Biso  1.000000 In
   In10       1.0     0.749597      0.251847      0.531524     Biso  1.000000 In
   In11       1.0     0.500122      0.170316      0.344447     Biso  1.000000 In
   In12       1.0     0.748180      0.420765      0.343397     Biso  1.000000 In
   In13       1.0     0.499908      0.165570      0.448561     Biso  1.000000 In
   In14       1.0     0.749904      0.415594      0.448489     Biso  1.000000 In
   In15       1.0     0.500301      0.320182      0.262901     Biso  1.000000 In
   In16       1.0     0.752017      0.082888      0.259275     Biso  1.000000 In
   In17       1.0     0.999611      0.501832      0.531571     Biso  1.000000 In
   In18       1.0     0.249582      0.751844      0.531598     Biso  1.000000 In
   In19       1.0     0.000105      0.670665      0.346275     Biso  1.000000 In
   In20       1.0     0.249840      0.921249      0.342957     Biso  1.000000 In
   In21       1.0    -0.000093      0.665716      0.448725     Biso  1.000000 In
   In22       1.0     0.249829      0.915747      0.448539     Biso  1.000000 In
   In23       1.0     0.000399      0.838915      0.259158     Biso  1.000000 In
   In24       1.0     0.233670      0.591535      0.263365     Biso  1.000000 In
   In25       1.0     0.499607      0.501839      0.531512     Biso  1.000000 In
   In26       1.0     0.749672      0.751842      0.531597     Biso  1.000000 In
   In27       1.0     0.500116      0.669987      0.343602     Biso  1.000000 In
   In28       1.0     0.750374      0.921262      0.342957     Biso  1.000000 In
   In29       1.0     0.499888      0.665639      0.448547     Biso  1.000000 In
   In30       1.0     0.749972      0.915733      0.448536     Biso  1.000000 In
   In31       1.0     0.500348      0.835989      0.259642     Biso  1.000000 In
   In32       1.0     0.766965      0.591567      0.263372     Biso  1.000000 In
   H1         1.0     0.500260      0.502467      0.210414     Biso  1.000000 H
