#======================================================================

# CRYSTAL DATA

#----------------------------------------------------------------------

data_VESTA_phase_1


_chemical_name_common                  'CONTCAR\(2)                           '
_cell_length_a                         8.26460
_cell_length_b                         14.03400
_cell_length_c                         48.00000
_cell_angle_alpha                      90
_cell_angle_beta                       90
_cell_angle_gamma                      90.00250
_space_group_name_H-M_alt              'P 1'
_space_group_IT_number                 1

loop_
_space_group_symop_operation_xyz
   'x, y, z'

loop_
   _atom_site_label
   _atom_site_occupancy
   _atom_site_fract_x
   _atom_site_fract_y
   _atom_site_fract_z
   _atom_site_adp_type
   _atom_site_B_iso_or_equiv
   _atom_site_type_symbol
   Se1        1.0     0.000048      0.340687      0.423336     Biso  1.000000 Se
   Se2        1.0     0.245441      0.089937      0.421520     Biso  1.000000 Se
   Se3        1.0     0.000026      0.319499      0.564140     Biso  1.000000 Se
   Se4        1.0     0.251231      0.073651      0.563022     Biso  1.000000 Se
   Se5        1.0     0.000105      0.002814      0.484972     Biso  1.000000 Se
   Se6        1.0     0.250956      0.251600      0.484705     Biso  1.000000 Se
   Se7        1.0     0.500072      0.343209      0.423069     Biso  1.000000 Se
   Se8        1.0     0.754631      0.089962      0.421517     Biso  1.000000 Se
   Se9        1.0     0.500038      0.320995      0.563797     Biso  1.000000 Se
   Se10       1.0     0.748837      0.073638      0.563024     Biso  1.000000 Se
   Se11       1.0     0.500110      0.011428      0.482866     Biso  1.000000 Se
   Se12       1.0     0.749157      0.251566      0.484707     Biso  1.000000 Se
   Se13       1.0     0.000076      0.836897      0.425054     Biso  1.000000 Se
   Se14       1.0     0.248651      0.590746      0.425745     Biso  1.000000 Se
   Se15       1.0     0.000105      0.826545      0.565279     Biso  1.000000 Se
   Se16       1.0     0.247256      0.568800      0.565615     Biso  1.000000 Se
   Se17       1.0     0.000078      0.502363      0.486857     Biso  1.000000 Se
   Se18       1.0     0.254792      0.756128      0.488102     Biso  1.000000 Se
   Se19       1.0     0.500067      0.834698      0.424446     Biso  1.000000 Se
   Se20       1.0     0.751504      0.590721      0.425745     Biso  1.000000 Se
   Se21       1.0     0.500100      0.800254      0.571176     Biso  1.000000 Se
   Se22       1.0     0.752802      0.568797      0.565611     Biso  1.000000 Se
   Se23       1.0     0.500057      0.500147      0.486774     Biso  1.000000 Se
   Se24       1.0     0.745310      0.756122      0.488098     Biso  1.000000 Se
   In1        1.0     0.000035      0.993300      0.537768     Biso  1.000000 In
   In2        1.0     0.250043      0.240254      0.537402     Biso  1.000000 In
   In3        1.0     0.000050      0.172781      0.450383     Biso  1.000000 In
   In4        1.0     0.248459      0.421040      0.451636     Biso  1.000000 In
   In5        1.0     0.500023      0.986580      0.535919     Biso  1.000000 In
   In6        1.0     0.750001      0.240248      0.537405     Biso  1.000000 In
   In7        1.0     0.500026      0.172940      0.447641     Biso  1.000000 In
   In8        1.0     0.751695      0.421034      0.451651     Biso  1.000000 In
   In9        1.0     0.000026      0.486490      0.539245     Biso  1.000000 In
   In10       1.0     0.244563      0.736548      0.540294     Biso  1.000000 In
   In11       1.0     0.000060      0.672805      0.453960     Biso  1.000000 In
   In12       1.0     0.252671      0.925464      0.450256     Biso  1.000000 In
   In13       1.0     0.500011      0.490015      0.539334     Biso  1.000000 In
   In14       1.0     0.755631      0.736548      0.540290     Biso  1.000000 In
   In15       1.0     0.500084      0.670061      0.453537     Biso  1.000000 In
   In16       1.0     0.747510      0.925475      0.450250     Biso  1.000000 In
   H1         1.0     0.500134      0.710664      0.589234     Biso  1.000000 H
