#======================================================================

# CRYSTAL DATA

#----------------------------------------------------------------------

data_VESTA_phase_1


_chemical_name_common                  'CONTCAR\(2)                           '
_cell_length_a                         7.95540
_cell_length_b                         13.50870
_cell_length_c                         48.00000
_cell_angle_alpha                      90
_cell_angle_beta                       90
_cell_angle_gamma                      90
_space_group_name_H-M_alt              'P 1'
_space_group_IT_number                 1

loop_
_space_group_symop_operation_xyz
   'x, y, z'

loop_
   _atom_site_label
   _atom_site_occupancy
   _atom_site_fract_x
   _atom_site_fract_y
   _atom_site_fract_z
   _atom_site_adp_type
   _atom_site_B_iso_or_equiv
   _atom_site_type_symbol
   S1         1.0     0.000057      0.342279      0.427663     Biso  1.000000 S
   S2         1.0     0.246218      0.091195      0.426115     Biso  1.000000 S
   S3         1.0     0.000072      0.318482      0.559562     Biso  1.000000 S
   S4         1.0     0.251124      0.072718      0.558569     Biso  1.000000 S
   S5         1.0     0.000056      0.004615      0.485727     Biso  1.000000 S
   S6         1.0     0.249881      0.253724      0.485320     Biso  1.000000 S
   S7         1.0     0.500056      0.343736      0.427427     Biso  1.000000 S
   S8         1.0     0.753917      0.091197      0.426115     Biso  1.000000 S
   S9         1.0     0.500076      0.319737      0.559223     Biso  1.000000 S
   S10        1.0     0.749054      0.072725      0.558567     Biso  1.000000 S
   S11        1.0     0.500055      0.013225      0.483519     Biso  1.000000 S
   S12        1.0     0.750251      0.253723      0.485319     Biso  1.000000 S
   S13        1.0     0.000050      0.837980      0.429646     Biso  1.000000 S
   S14        1.0     0.249450      0.592203      0.430070     Biso  1.000000 S
   S15        1.0     0.000064      0.824878      0.560932     Biso  1.000000 S
   S16        1.0     0.247122      0.566909      0.561001     Biso  1.000000 S
   S17        1.0     0.000045      0.503690      0.487296     Biso  1.000000 S
   S18        1.0     0.255308      0.757018      0.488959     Biso  1.000000 S
   S19        1.0     0.500043      0.836595      0.429057     Biso  1.000000 S
   S20        1.0     0.750632      0.592198      0.430070     Biso  1.000000 S
   S21        1.0     0.500062      0.791788      0.568330     Biso  1.000000 S
   S22        1.0     0.752991      0.566909      0.560997     Biso  1.000000 S
   S23        1.0     0.500042      0.501834      0.487289     Biso  1.000000 S
   S24        1.0     0.744778      0.757022      0.488957     Biso  1.000000 S
   In1        1.0     0.000094      0.991742      0.535747     Biso  1.000000 In
   In2        1.0     0.250098      0.238492      0.535179     Biso  1.000000 In
   In3        1.0     0.000073      0.174176      0.452068     Biso  1.000000 In
   In4        1.0     0.249062      0.422414      0.453301     Biso  1.000000 In
   In5        1.0     0.500094      0.984150      0.533712     Biso  1.000000 In
   In6        1.0     0.750057      0.238497      0.535178     Biso  1.000000 In
   In7        1.0     0.500074      0.174247      0.450068     Biso  1.000000 In
   In8        1.0     0.751045      0.422413      0.453304     Biso  1.000000 In
   In9        1.0     0.000061      0.484769      0.536849     Biso  1.000000 In
   In10       1.0     0.245082      0.735254      0.538283     Biso  1.000000 In
   In11       1.0     0.000041      0.673304      0.455492     Biso  1.000000 In
   In12       1.0     0.252111      0.926811      0.452377     Biso  1.000000 In
   In13       1.0     0.500053      0.488113      0.537010     Biso  1.000000 In
   In14       1.0     0.755052      0.735256      0.538280     Biso  1.000000 In
   In15       1.0     0.500040      0.671972      0.455439     Biso  1.000000 In
   In16       1.0     0.747983      0.926811      0.452374     Biso  1.000000 In
   H1         1.0     0.500048      0.708649      0.584990     Biso  1.000000 H
