#======================================================================

# CRYSTAL DATA

#----------------------------------------------------------------------

data_VESTA_phase_1


_chemical_name_common                  'CONTCAR\(3)                           '
_cell_length_a                         7.95540
_cell_length_b                         13.50870
_cell_length_c                         48.00000
_cell_angle_alpha                      90
_cell_angle_beta                       90
_cell_angle_gamma                      90.00260
_space_group_name_H-M_alt              'P 1'
_space_group_IT_number                 1

loop_
_space_group_symop_operation_xyz
   'x, y, z'

loop_
   _atom_site_label
   _atom_site_occupancy
   _atom_site_fract_x
   _atom_site_fract_y
   _atom_site_fract_z
   _atom_site_adp_type
   _atom_site_B_iso_or_equiv
   _atom_site_type_symbol
   S1         1.0     0.000184      0.002792      0.228639     Biso  1.000000 S
   S2         1.0     0.252130      0.252203      0.229987     Biso  1.000000 S
   S3         1.0     0.000284      0.004341      0.361266     Biso  1.000000 S
   S4         1.0     0.248794      0.253703      0.361571     Biso  1.000000 S
   S5         1.0     0.000198      0.168645      0.287630     Biso  1.000000 S
   S6         1.0     0.254455      0.419667      0.287961     Biso  1.000000 S
   S7         1.0     0.500196      0.001577      0.229396     Biso  1.000000 S
   S8         1.0     0.748261      0.252201      0.229987     Biso  1.000000 S
   S9         1.0     0.500279      0.002716      0.361792     Biso  1.000000 S
   S10        1.0     0.751696      0.253713      0.361573     Biso  1.000000 S
   S11        1.0     0.500194      0.160935      0.289115     Biso  1.000000 S
   S12        1.0     0.745895      0.419665      0.287961     Biso  1.000000 S
   S13        1.0     0.000170      0.503590      0.231032     Biso  1.000000 S
   S14        1.0     0.249075      0.750383      0.230375     Biso  1.000000 S
   S15        1.0     0.000186      0.501270      0.362130     Biso  1.000000 S
   S16        1.0     0.253423      0.756186      0.362401     Biso  1.000000 S
   S17        1.0     0.000157      0.675310      0.290798     Biso  1.000000 S
   S18        1.0     0.249719      0.918296      0.287806     Biso  1.000000 S
   S19        1.0     0.500154      0.501717      0.233782     Biso  1.000000 S
   S20        1.0     0.751251      0.750384      0.230373     Biso  1.000000 S
   S21        1.0     0.500181      0.504051      0.362162     Biso  1.000000 S
   S22        1.0     0.747042      0.756191      0.362406     Biso  1.000000 S
   S23        1.0     0.500177      0.666900      0.288207     Biso  1.000000 S
   S24        1.0     0.750675      0.918293      0.287807     Biso  1.000000 S
   In1        1.0     0.000236      0.171926      0.338057     Biso  1.000000 In
   In2        1.0     0.251979      0.422276      0.338757     Biso  1.000000 In
   In3        1.0     0.000192      0.333210      0.255057     Biso  1.000000 In
   In4        1.0     0.248685      0.082543      0.254397     Biso  1.000000 In
   In5        1.0     0.500258      0.171532      0.339598     Biso  1.000000 In
   In6        1.0     0.748366      0.422286      0.338756     Biso  1.000000 In
   In7        1.0     0.500199      0.320368      0.257947     Biso  1.000000 In
   In8        1.0     0.751701      0.082548      0.254402     Biso  1.000000 In
   In9        1.0     0.000214      0.672213      0.341704     Biso  1.000000 In
   In10       1.0     0.250177      0.922413      0.338288     Biso  1.000000 In
   In11       1.0     0.000166      0.838446      0.254501     Biso  1.000000 In
   In12       1.0     0.233312      0.591191      0.258604     Biso  1.000000 In
   In13       1.0     0.500242      0.671804      0.339065     Biso  1.000000 In
   In14       1.0     0.750395      0.922414      0.338290     Biso  1.000000 In
   In15       1.0     0.500165      0.835186      0.254975     Biso  1.000000 In
   In16       1.0     0.766997      0.591183      0.258597     Biso  1.000000 In
   H1         1.0     0.500173      0.501291      0.205567     Biso  1.000000 H
