#======================================================================

# CRYSTAL DATA

#----------------------------------------------------------------------

data_VESTA_phase_1


_chemical_name_common                  'CONTCAR\(3)                           '
_cell_length_a                         8.83890
_cell_length_b                         15.00940
_cell_length_c                         48.00000
_cell_angle_alpha                      90
_cell_angle_beta                       90
_cell_angle_gamma                      90.00234
_space_group_name_H-M_alt              'P 1'
_space_group_IT_number                 1

loop_
_space_group_symop_operation_xyz
   'x, y, z'

loop_
   _atom_site_label
   _atom_site_occupancy
   _atom_site_fract_x
   _atom_site_fract_y
   _atom_site_fract_z
   _atom_site_adp_type
   _atom_site_B_iso_or_equiv
   _atom_site_type_symbol
   Te1        1.0     0.000269     -0.001466      0.217661     Biso  1.000000 Te
   Te2        1.0     0.265415      0.254063      0.221693     Biso  1.000000 Te
   Te3        1.0     0.000274      0.005243      0.372676     Biso  1.000000 Te
   Te4        1.0     0.244702      0.257609      0.373260     Biso  1.000000 Te
   Te5        1.0     0.000198      0.164421      0.286988     Biso  1.000000 Te
   Te6        1.0     0.253365      0.411380      0.287112     Biso  1.000000 Te
   Te7        1.0     0.500318      0.003362      0.219897     Biso  1.000000 Te
   Te8        1.0     0.734954      0.254043      0.221692     Biso  1.000000 Te
   Te9        1.0     0.500218      0.001520      0.374110     Biso  1.000000 Te
   Te10       1.0     0.755541      0.257585      0.373265     Biso  1.000000 Te
   Te11       1.0     0.500228      0.133975      0.292292     Biso  1.000000 Te
   Te12       1.0     0.746971      0.411405      0.287123     Biso  1.000000 Te
   Te13       1.0     0.000138      0.502399      0.219970     Biso  1.000000 Te
   Te14       1.0     0.250460      0.752622      0.219192     Biso  1.000000 Te
   Te15       1.0     0.000220      0.505053      0.372278     Biso  1.000000 Te
   Te16       1.0     0.251217      0.755806      0.372494     Biso  1.000000 Te
   Te17       1.0     0.000186      0.661016      0.287950     Biso  1.000000 Te
   Te18       1.0     0.246877      0.910514      0.287200     Biso  1.000000 Te
   Te19       1.0     0.500169      0.503141      0.218047     Biso  1.000000 Te
   Te20       1.0     0.749953      0.752585      0.219186     Biso  1.000000 Te
   Te21       1.0     0.500175      0.506572      0.373116     Biso  1.000000 Te
   Te22       1.0     0.749235      0.755823      0.372500     Biso  1.000000 Te
   Te23       1.0     0.500174      0.664633      0.286995     Biso  1.000000 Te
   Te24       1.0     0.753518      0.910502      0.287206     Biso  1.000000 Te
   In1        1.0     0.000114      0.172662      0.344220     Biso  1.000000 In
   In2        1.0     0.252693      0.425219      0.344444     Biso  1.000000 In
   In3        1.0     0.000173      0.330494      0.248625     Biso  1.000000 In
   In4        1.0     0.241741      0.079401      0.249397     Biso  1.000000 In
   In5        1.0     0.500111      0.174032      0.348289     Biso  1.000000 In
   In6        1.0     0.747702      0.425215      0.344456     Biso  1.000000 In
   In7        1.0     0.500203      0.298298      0.263190     Biso  1.000000 In
   In8        1.0     0.758851      0.079396      0.249402     Biso  1.000000 In
   In9        1.0     0.000202      0.674579      0.344996     Biso  1.000000 In
   In10       1.0     0.250676      0.924706      0.344335     Biso  1.000000 In
   In11       1.0     0.000178      0.831523      0.250145     Biso  1.000000 In
   In12       1.0     0.248155      0.586194      0.250797     Biso  1.000000 In
   In13       1.0     0.500238      0.673779      0.344270     Biso  1.000000 In
   In14       1.0     0.749814      0.924730      0.344341     Biso  1.000000 In
   In15       1.0     0.500210      0.834536      0.250188     Biso  1.000000 In
   In16       1.0     0.752182      0.586206      0.250806     Biso  1.000000 In
   H1         1.0     0.500212      0.592785      0.196915     Biso  1.000000 H
