#======================================================================

# CRYSTAL DATA

#----------------------------------------------------------------------

data_VESTA_phase_1


_chemical_name_common                  'CONTCAR\(2)                           '
_cell_length_a                         13.50980
_cell_length_b                         7.95570
_cell_length_c                         47.75650
_cell_angle_alpha                      90
_cell_angle_beta                       90
_cell_angle_gamma                      90.00010
_space_group_name_H-M_alt              'P 1'
_space_group_IT_number                 1

loop_
_space_group_symop_operation_xyz
   'x, y, z'

loop_
   _atom_site_label
   _atom_site_occupancy
   _atom_site_fract_x
   _atom_site_fract_y
   _atom_site_fract_z
   _atom_site_adp_type
   _atom_site_B_iso_or_equiv
   _atom_site_type_symbol
   In1        1.0     0.253048      0.750918      0.258691     Biso  1.000000 In
   In2        1.0     0.753046      0.250914      0.258690     Biso  1.000000 In
   In3        1.0     0.420578      0.750817      0.447335     Biso  1.000000 In
   In4        1.0     0.920583      0.250835      0.447243     Biso  1.000000 In
   In5        1.0     0.089981      0.250030      0.635801     Biso  1.000000 In
   In6        1.0     0.589445      0.748379      0.635158     Biso  1.000000 In
   In7        1.0     0.165278      0.000881      0.342093     Biso  1.000000 In
   In8        1.0     0.665263      0.500894      0.342090     Biso  1.000000 In
   In9        1.0     0.333196      0.000510      0.530611     Biso  1.000000 In
   In10       1.0     0.833285      0.500524      0.530521     Biso  1.000000 In
   In11       1.0     0.500548      0.000111      0.719040     Biso  1.000000 In
   In12       1.0     0.003304      0.500139      0.719484     Biso  1.000000 In
   In13       1.0     0.253049      0.250922      0.258691     Biso  1.000000 In
   In14       1.0     0.753046      0.750914      0.258690     Biso  1.000000 In
   In15       1.0     0.420582      0.250860      0.447333     Biso  1.000000 In
   In16       1.0     0.920594      0.750923      0.447243     Biso  1.000000 In
   In17       1.0     0.089965      0.750592      0.635803     Biso  1.000000 In
   In18       1.0     0.589463      0.252354      0.635154     Biso  1.000000 In
   In19       1.0     0.165282      0.500884      0.342092     Biso  1.000000 In
   In20       1.0     0.665259      0.000899      0.342086     Biso  1.000000 In
   In21       1.0     0.333233      0.500516      0.530527     Biso  1.000000 In
   In22       1.0     0.833395      0.000548      0.530263     Biso  1.000000 In
   In23       1.0     0.487927      0.500098      0.716041     Biso  1.000000 In
   In24       1.0     0.006357      0.000134      0.720007     Biso  1.000000 In
   In25       1.0     0.503039      0.500927      0.258682     Biso  1.000000 In
   In26       1.0     0.003036      0.000934      0.258686     Biso  1.000000 In
   In27       1.0     0.170595      0.000903      0.447325     Biso  1.000000 In
   In28       1.0     0.670607      0.500901      0.447315     Biso  1.000000 In
   In29       1.0     0.339188      0.000371      0.635709     Biso  1.000000 In
   In30       1.0     0.838624      0.500422      0.635109     Biso  1.000000 In
   In31       1.0     0.415268      0.750913      0.342090     Biso  1.000000 In
   In32       1.0     0.915279      0.250905      0.342090     Biso  1.000000 In
   In33       1.0     0.083355      0.250521      0.530498     Biso  1.000000 In
   In34       1.0     0.583212      0.750553      0.530481     Biso  1.000000 In
   In35       1.0     0.250302      0.248637      0.719740     Biso  1.000000 In
   In36       1.0     0.758925      0.767131      0.715592     Biso  1.000000 In
   In37       1.0     0.503040      0.000926      0.258681     Biso  1.000000 In
   In38       1.0     0.003036      0.500933      0.258686     Biso  1.000000 In
   In39       1.0     0.170640      0.500898      0.447296     Biso  1.000000 In
   In40       1.0     0.670574      0.000890      0.447245     Biso  1.000000 In
   In41       1.0     0.339071      0.500387      0.634158     Biso  1.000000 In
   In42       1.0     0.839380      0.000430      0.632406     Biso  1.000000 In
   In43       1.0     0.415265      0.250916      0.342090     Biso  1.000000 In
   In44       1.0     0.915278      0.750904      0.342090     Biso  1.000000 In
   In45       1.0     0.083344      0.750665      0.530496     Biso  1.000000 In
   In46       1.0     0.583207      0.250557      0.530478     Biso  1.000000 In
   In47       1.0     0.250302      0.751576      0.719746     Biso  1.000000 In
   In48       1.0     0.758909      0.233137      0.715603     Biso  1.000000 In
   S1         1.0     0.334983      0.500915      0.235512     Biso  1.000000 S
   S2         1.0     0.834987      0.000911      0.235514     Biso  1.000000 S
   S3         1.0     0.002558      0.000866      0.424645     Biso  1.000000 S
   S4         1.0     0.502467      0.500835      0.424707     Biso  1.000000 S
   S5         1.0     0.171272      0.000312      0.613016     Biso  1.000000 S
   S6         1.0     0.671377      0.500384      0.612185     Biso  1.000000 S
   S7         1.0     0.249561      0.750890      0.309335     Biso  1.000000 S
   S8         1.0     0.749560      0.250902      0.309335     Biso  1.000000 S
   S9         1.0     0.417297      0.750571      0.498102     Biso  1.000000 S
   S10        1.0     0.917393      0.250649      0.498011     Biso  1.000000 S
   S11        1.0     0.085715      0.249696      0.686583     Biso  1.000000 S
   S12        1.0     0.587296      0.746336      0.686157     Biso  1.000000 S
   S13        1.0     0.332832      0.500902      0.367527     Biso  1.000000 S
   S14        1.0     0.832820      0.000898      0.367523     Biso  1.000000 S
   S15        1.0     0.000613      0.000586      0.556143     Biso  1.000000 S
   S16        1.0     0.500813      0.500545      0.556179     Biso  1.000000 S
   S17        1.0     0.170946      0.000121      0.745852     Biso  1.000000 S
   S18        1.0     0.669245      0.500138      0.740414     Biso  1.000000 S
   S19        1.0     0.334981      0.000916      0.235513     Biso  1.000000 S
   S20        1.0     0.834987      0.500911      0.235514     Biso  1.000000 S
   S21        1.0     0.002527      0.500858      0.424657     Biso  1.000000 S
   S22        1.0     0.502365      0.000827      0.424686     Biso  1.000000 S
   S23        1.0     0.169737      0.500321      0.612646     Biso  1.000000 S
   S24        1.0     0.668561      0.000358      0.612353     Biso  1.000000 S
   S25        1.0     0.249560      0.250898      0.309335     Biso  1.000000 S
   S26        1.0     0.749558      0.750903      0.309335     Biso  1.000000 S
   S27        1.0     0.417293      0.250605      0.498101     Biso  1.000000 S
   S28        1.0     0.917386      0.750565      0.498012     Biso  1.000000 S
   S29        1.0     0.085711      0.750637      0.686587     Biso  1.000000 S
   S30        1.0     0.587308      0.254019      0.686153     Biso  1.000000 S
   S31        1.0     0.332829      0.000901      0.367521     Biso  1.000000 S
   S32        1.0     0.832829      0.500896      0.367520     Biso  1.000000 S
   S33        1.0     0.000872      0.500572      0.556006     Biso  1.000000 S
   S34        1.0     0.500825      0.000547      0.556104     Biso  1.000000 S
   S35        1.0     0.169765      0.500095      0.745111     Biso  1.000000 S
   S36        1.0     0.671033      0.000130      0.743275     Biso  1.000000 S
   S37        1.0     0.084998      0.750928      0.235515     Biso  1.000000 S
   S38        1.0     0.585001      0.250924      0.235510     Biso  1.000000 S
   S39        1.0     0.252486      0.750948      0.424691     Biso  1.000000 S
   S40        1.0     0.752413      0.250960      0.424647     Biso  1.000000 S
   S41        1.0     0.421597      0.751959      0.612649     Biso  1.000000 S
   S42        1.0     0.922864      0.253929      0.612275     Biso  1.000000 S
   S43        1.0     0.499558      0.500910      0.309329     Biso  1.000000 S
   S44        1.0     0.999562      0.000906      0.309334     Biso  1.000000 S
   S45        1.0     0.167395      0.000634      0.498112     Biso  1.000000 S
   S46        1.0     0.667416      0.500614      0.498103     Biso  1.000000 S
   S47        1.0     0.336164      0.000163      0.686470     Biso  1.000000 S
   S48        1.0     0.834769      0.500189      0.686150     Biso  1.000000 S
   S49        1.0     0.082833      0.750877      0.367522     Biso  1.000000 S
   S50        1.0     0.582813      0.250886      0.367522     Biso  1.000000 S
   S51        1.0     0.250772      0.750429      0.556223     Biso  1.000000 S
   S52        1.0     0.750885      0.250120      0.556115     Biso  1.000000 S
   S53        1.0     0.420117      0.747861      0.744296     Biso  1.000000 S
   S54        1.0     0.917733      0.249114      0.744165     Biso  1.000000 S
   S55        1.0     0.084999      0.250926      0.235515     Biso  1.000000 S
   S56        1.0     0.585001      0.750921      0.235510     Biso  1.000000 S
   S57        1.0     0.252486      0.250816      0.424691     Biso  1.000000 S
   S58        1.0     0.752423      0.750794      0.424647     Biso  1.000000 S
   S59        1.0     0.421593      0.248799      0.612655     Biso  1.000000 S
   S60        1.0     0.922854      0.746907      0.612274     Biso  1.000000 S
   S61        1.0     0.499558      0.000912      0.309327     Biso  1.000000 S
   S62        1.0     0.999564      0.500907      0.309332     Biso  1.000000 S
   S63        1.0     0.167464      0.500634      0.498063     Biso  1.000000 S
   S64        1.0     0.667286      0.000611      0.498019     Biso  1.000000 S
   S65        1.0     0.328537      0.500181      0.684982     Biso  1.000000 S
   S66        1.0     0.843112      0.000204      0.683555     Biso  1.000000 S
   S67        1.0     0.082834      0.250886      0.367521     Biso  1.000000 S
   S68        1.0     0.582816      0.750895      0.367522     Biso  1.000000 S
   S69        1.0     0.250781      0.250611      0.556223     Biso  1.000000 S
   S70        1.0     0.750898      0.750952      0.556113     Biso  1.000000 S
   S71        1.0     0.420111      0.252356      0.744296     Biso  1.000000 S
   S72        1.0     0.917726      0.751163      0.744167     Biso  1.000000 S
   H1         1.0     0.668425      0.500142      0.768764     Biso  1.000000 H
