#======================================================================

# CRYSTAL DATA

#----------------------------------------------------------------------

data_VESTA_phase_1


_chemical_name_common                  'CONTCAR\(2)                           '
_cell_length_a                         15.06510
_cell_length_b                         8.85071
_cell_length_c                         47.75650
_cell_angle_alpha                      90
_cell_angle_beta                       90
_cell_angle_gamma                      90.00009
_space_group_name_H-M_alt              'P 1'
_space_group_IT_number                 1

loop_
_space_group_symop_operation_xyz
   'x, y, z'

loop_
   _atom_site_label
   _atom_site_occupancy
   _atom_site_fract_x
   _atom_site_fract_y
   _atom_site_fract_z
   _atom_site_adp_type
   _atom_site_B_iso_or_equiv
   _atom_site_type_symbol
   In1        1.0     0.253872      0.751040      0.229550     Biso  1.000000 In
   In2        1.0     0.753875      0.251079      0.229556     Biso  1.000000 In
   In3        1.0     0.423792      0.751833      0.441080     Biso  1.000000 In
   In4        1.0     0.923751      0.251624      0.441048     Biso  1.000000 In
   In5        1.0     0.090227      0.250374      0.652663     Biso  1.000000 In
   In6        1.0     0.590949      0.747105      0.652814     Biso  1.000000 In
   In7        1.0     0.167123      0.001718      0.323654     Biso  1.000000 In
   In8        1.0     0.667174      0.501671      0.323655     Biso  1.000000 In
   In9        1.0     0.332303      0.000138      0.534982     Biso  1.000000 In
   In10       1.0     0.831660      0.500095      0.534967     Biso  1.000000 In
   In11       1.0     0.494320     -0.001045      0.748881     Biso  1.000000 In
   In12       1.0    -0.001707      0.498769      0.747472     Biso  1.000000 In
   In13       1.0     0.253860      0.251064      0.229549     Biso  1.000000 In
   In14       1.0     0.753870      0.751086      0.229557     Biso  1.000000 In
   In15       1.0     0.423821      0.252023      0.441076     Biso  1.000000 In
   In16       1.0     0.923799      0.752308      0.441037     Biso  1.000000 In
   In17       1.0     0.090210      0.750164      0.652642     Biso  1.000000 In
   In18       1.0     0.590950      0.253412      0.652849     Biso  1.000000 In
   In19       1.0     0.167205      0.501702      0.323614     Biso  1.000000 In
   In20       1.0     0.667197      0.001655      0.323646     Biso  1.000000 In
   In21       1.0     0.332509      0.500178      0.534938     Biso  1.000000 In
   In22       1.0     0.832636      0.000119      0.534754     Biso  1.000000 In
   In23       1.0     0.465620      0.499071      0.734693     Biso  1.000000 In
   In24       1.0    -0.002893     -0.001148      0.746931     Biso  1.000000 In
   In25       1.0     0.503856      0.501052      0.229563     Biso  1.000000 In
   In26       1.0     0.003862      0.001083      0.229542     Biso  1.000000 In
   In27       1.0     0.173858      0.001920      0.441149     Biso  1.000000 In
   In28       1.0     0.673964      0.501988      0.441019     Biso  1.000000 In
   In29       1.0     0.338621      0.000251      0.652865     Biso  1.000000 In
   In30       1.0     0.839294      0.500246      0.652752     Biso  1.000000 In
   In31       1.0     0.417139      0.751655      0.323631     Biso  1.000000 In
   In32       1.0     0.917160      0.251739      0.323610     Biso  1.000000 In
   In33       1.0     0.082360      0.250215      0.535169     Biso  1.000000 In
   In34       1.0     0.582610      0.750117      0.535018     Biso  1.000000 In
   In35       1.0     0.243997      0.240770      0.748077     Biso  1.000000 In
   In36       1.0     0.751218      0.751703      0.746620     Biso  1.000000 In
   In37       1.0     0.503863      0.001055      0.229562     Biso  1.000000 In
   In38       1.0     0.003876      0.501101      0.229535     Biso  1.000000 In
   In39       1.0     0.173673      0.501877      0.441142     Biso  1.000000 In
   In40       1.0     0.673813      0.001978      0.440991     Biso  1.000000 In
   In41       1.0     0.339733      0.500361      0.648902     Biso  1.000000 In
   In42       1.0     0.839685      0.000326      0.651895     Biso  1.000000 In
   In43       1.0     0.417153      0.251624      0.323629     Biso  1.000000 In
   In44       1.0     0.917174      0.751704      0.323614     Biso  1.000000 In
   In45       1.0     0.082374      0.750077      0.535146     Biso  1.000000 In
   In46       1.0     0.582632      0.250202      0.534990     Biso  1.000000 In
   In47       1.0     0.244004      0.757245      0.747970     Biso  1.000000 In
   In48       1.0     0.751375      0.246093      0.746612     Biso  1.000000 In
   Te1        1.0     0.335797      0.501078      0.201347     Biso  1.000000 Te
   Te2        1.0     0.835769      0.001097      0.201348     Biso  1.000000 Te
   Te3        1.0     0.005795      0.001954      0.413135     Biso  1.000000 Te
   Te4        1.0     0.505625      0.501892      0.413175     Biso  1.000000 Te
   Te5        1.0     0.171412      0.000272      0.624585     Biso  1.000000 Te
   Te6        1.0     0.672227      0.500178      0.624176     Biso  1.000000 Te
   Te7        1.0     0.248983      0.751596      0.287050     Biso  1.000000 Te
   Te8        1.0     0.748955      0.251542      0.287056     Biso  1.000000 Te
   Te9        1.0     0.415908      0.750425      0.498913     Biso  1.000000 Te
   Te10       1.0     0.915982      0.250596      0.498872     Biso  1.000000 Te
   Te11       1.0     0.078592      0.246566      0.710488     Biso  1.000000 Te
   Te12       1.0     0.579144      0.745603      0.710844     Biso  1.000000 Te
   Te13       1.0     0.335403      0.501594      0.354679     Biso  1.000000 Te
   Te14       1.0     0.835460      0.001678      0.354675     Biso  1.000000 Te
   Te15       1.0     0.000183      0.000147      0.566408     Biso  1.000000 Te
   Te16       1.0     0.500322      0.500161      0.566347     Biso  1.000000 Te
   Te17       1.0     0.163252      0.998832      0.779924     Biso  1.000000 Te
   Te18       1.0     0.671442      0.498737      0.780193     Biso  1.000000 Te
   Te19       1.0     0.335797      0.001081      0.201352     Biso  1.000000 Te
   Te20       1.0     0.835773      0.501103      0.201349     Biso  1.000000 Te
   Te21       1.0     0.005516      0.501864      0.413213     Biso  1.000000 Te
   Te22       1.0     0.505435      0.001853      0.413162     Biso  1.000000 Te
   Te23       1.0     0.168104      0.500213      0.623339     Biso  1.000000 Te
   Te24       1.0     0.670209      0.000310      0.625113     Biso  1.000000 Te
   Te25       1.0     0.248988      0.251528      0.287049     Biso  1.000000 Te
   Te26       1.0     0.748962      0.751549      0.287057     Biso  1.000000 Te
   Te27       1.0     0.415902      0.250450      0.498908     Biso  1.000000 Te
   Te28       1.0     0.915981      0.750217      0.498863     Biso  1.000000 Te
   Te29       1.0     0.078510      0.751753      0.710466     Biso  1.000000 Te
   Te30       1.0     0.579147      0.253112      0.710879     Biso  1.000000 Te
   Te31       1.0     0.335361      0.001616      0.354677     Biso  1.000000 Te
   Te32       1.0     0.835456      0.501683      0.354668     Biso  1.000000 Te
   Te33       1.0    -0.001007      0.500245      0.566129     Biso  1.000000 Te
   Te34       1.0     0.500493      0.000244      0.566081     Biso  1.000000 Te
   Te35       1.0     0.167153      0.499132      0.777672     Biso  1.000000 Te
   Te36       1.0     0.665871      0.998993      0.777514     Biso  1.000000 Te
   Te37       1.0     0.085806      0.751122      0.201335     Biso  1.000000 Te
   Te38       1.0     0.585776      0.251075      0.201357     Biso  1.000000 Te
   Te39       1.0     0.255477      0.751775      0.413231     Biso  1.000000 Te
   Te40       1.0     0.755586      0.251913      0.413098     Biso  1.000000 Te
   Te41       1.0     0.423540      0.754868      0.624187     Biso  1.000000 Te
   Te42       1.0     0.921626      0.251234      0.624752     Biso  1.000000 Te
   Te43       1.0     0.499007      0.501535      0.287059     Biso  1.000000 Te
   Te44       1.0     0.999014      0.001589      0.287042     Biso  1.000000 Te
   Te45       1.0     0.165710      0.000462      0.499015     Biso  1.000000 Te
   Te46       1.0     0.665700      0.500466      0.498888     Biso  1.000000 Te
   Te47       1.0     0.331159     -0.000623      0.710793     Biso  1.000000 Te
   Te48       1.0     0.831316      0.499172      0.710724     Biso  1.000000 Te
   Te49       1.0     0.085404      0.751570      0.354662     Biso  1.000000 Te
   Te50       1.0     0.585401      0.251578      0.354677     Biso  1.000000 Te
   Te51       1.0     0.250558      0.749974      0.566403     Biso  1.000000 Te
   Te52       1.0     0.750292      0.249376      0.566309     Biso  1.000000 Te
   Te53       1.0     0.417457      0.733585      0.776072     Biso  1.000000 Te
   Te54       1.0     0.916681      0.247356      0.778419     Biso  1.000000 Te
   Te55       1.0     0.085796      0.251100      0.201337     Biso  1.000000 Te
   Te56       1.0     0.585774      0.751075      0.201358     Biso  1.000000 Te
   Te57       1.0     0.255500      0.251897      0.413229     Biso  1.000000 Te
   Te58       1.0     0.755599      0.751924      0.413099     Biso  1.000000 Te
   Te59       1.0     0.423553      0.245700      0.624219     Biso  1.000000 Te
   Te60       1.0     0.921569      0.749308      0.624750     Biso  1.000000 Te
   Te61       1.0     0.499020      0.001528      0.287057     Biso  1.000000 Te
   Te62       1.0     0.999031      0.501585      0.287032     Biso  1.000000 Te
   Te63       1.0     0.165788      0.500409      0.498990     Biso  1.000000 Te
   Te64       1.0     0.665845      0.000433      0.498793     Biso  1.000000 Te
   Te65       1.0     0.302752      0.499287      0.705511     Biso  1.000000 Te
   Te66       1.0     0.828554     -0.000859      0.709630     Biso  1.000000 Te
   Te67       1.0     0.085380      0.251782      0.354661     Biso  1.000000 Te
   Te68       1.0     0.585379      0.751688      0.354677     Biso  1.000000 Te
   Te69       1.0     0.250587      0.250427      0.566398     Biso  1.000000 Te
   Te70       1.0     0.750306      0.750942      0.566308     Biso  1.000000 Te
   Te71       1.0     0.417507      0.264326      0.776099     Biso  1.000000 Te
   Te72       1.0     0.916631      0.750234      0.778388     Biso  1.000000 Te
   H1         1.0     0.761486      0.499199      0.801080     Biso  1.000000 H
