#======================================================================

# CRYSTAL DATA

#----------------------------------------------------------------------

data_VESTA_phase_1


_chemical_name_common                  'CONTCAR\(2)                           '
_cell_length_a                         14.02430
_cell_length_b                         8.25840
_cell_length_c                         47.75650
_cell_angle_alpha                      90
_cell_angle_beta                       90
_cell_angle_gamma                      90.00010
_space_group_name_H-M_alt              'P 1'
_space_group_IT_number                 1

loop_
_space_group_symop_operation_xyz
   'x, y, z'

loop_
   _atom_site_label
   _atom_site_occupancy
   _atom_site_fract_x
   _atom_site_fract_y
   _atom_site_fract_z
   _atom_site_adp_type
   _atom_site_B_iso_or_equiv
   _atom_site_type_symbol
   In1        1.0     0.253422      0.750454      0.246658     Biso  1.000000 In
   In2        1.0     0.753437      0.250445      0.246639     Biso  1.000000 In
   In3        1.0     0.421227      0.751120      0.444869     Biso  1.000000 In
   In4        1.0     0.921165      0.251087      0.444958     Biso  1.000000 In
   In5        1.0     0.090963      0.250077      0.643005     Biso  1.000000 In
   In6        1.0     0.591089      0.746759      0.643101     Biso  1.000000 In
   In7        1.0     0.164543      0.000590      0.334146     Biso  1.000000 In
   In8        1.0     0.664571      0.500591      0.334128     Biso  1.000000 In
   In9        1.0     0.332865      0.001338      0.532143     Biso  1.000000 In
   In10       1.0     0.832391      0.501446      0.532250     Biso  1.000000 In
   In11       1.0     0.498352     -0.000244      0.731445     Biso  1.000000 In
   In12       1.0     0.001962      0.499587      0.731036     Biso  1.000000 In
   In13       1.0     0.253422      0.250453      0.246658     Biso  1.000000 In
   In14       1.0     0.753441      0.750440      0.246639     Biso  1.000000 In
   In15       1.0     0.421220      0.251168      0.444864     Biso  1.000000 In
   In16       1.0     0.921145      0.751341      0.444954     Biso  1.000000 In
   In17       1.0     0.090903      0.750380      0.643014     Biso  1.000000 In
   In18       1.0     0.591035      0.253620      0.643103     Biso  1.000000 In
   In19       1.0     0.164552      0.500587      0.334142     Biso  1.000000 In
   In20       1.0     0.664570      0.000590      0.334127     Biso  1.000000 In
   In21       1.0     0.332824      0.501326      0.532065     Biso  1.000000 In
   In22       1.0     0.832848      0.001421      0.532158     Biso  1.000000 In
   In23       1.0     0.471494      0.499780      0.721151     Biso  1.000000 In
   In24       1.0     0.001736     -0.000412      0.731072     Biso  1.000000 In
   In25       1.0     0.503372      0.500325      0.246704     Biso  1.000000 In
   In26       1.0     0.003386      0.000290      0.246698     Biso  1.000000 In
   In27       1.0     0.171181      0.001430      0.444963     Biso  1.000000 In
   In28       1.0     0.671249      0.501480      0.444900     Biso  1.000000 In
   In29       1.0     0.339669      0.000142      0.643070     Biso  1.000000 In
   In30       1.0     0.840743      0.500176      0.642919     Biso  1.000000 In
   In31       1.0     0.414595      0.750950      0.334201     Biso  1.000000 In
   In32       1.0     0.914599      0.251015      0.334192     Biso  1.000000 In
   In33       1.0     0.082706      0.251141      0.532335     Biso  1.000000 In
   In34       1.0     0.582850      0.751189      0.532230     Biso  1.000000 In
   In35       1.0     0.246816      0.243657      0.731389     Biso  1.000000 In
   In36       1.0     0.756178      0.755485      0.729777     Biso  1.000000 In
   In37       1.0     0.503372      0.000326      0.246704     Biso  1.000000 In
   In38       1.0     0.003386      0.500292      0.246697     Biso  1.000000 In
   In39       1.0     0.171173      0.501433      0.444950     Biso  1.000000 In
   In40       1.0     0.671209      0.001479      0.444880     Biso  1.000000 In
   In41       1.0     0.339812      0.500250      0.639275     Biso  1.000000 In
   In42       1.0     0.840766      0.000238      0.641847     Biso  1.000000 In
   In43       1.0     0.414592      0.250946      0.334205     Biso  1.000000 In
   In44       1.0     0.914598      0.751007      0.334192     Biso  1.000000 In
   In45       1.0     0.082730      0.751169      0.532322     Biso  1.000000 In
   In46       1.0     0.582892      0.251190      0.532197     Biso  1.000000 In
   In47       1.0     0.246852      0.755746      0.731378     Biso  1.000000 In
   In48       1.0     0.756248      0.243847      0.729763     Biso  1.000000 In
   Se1        1.0     0.335384      0.500471      0.221093     Biso  1.000000 Se
   Se2        1.0     0.835415      0.000460      0.221075     Biso  1.000000 Se
   Se3        1.0     0.003023      0.001225      0.419711     Biso  1.000000 Se
   Se4        1.0     0.503073      0.501158      0.419648     Biso  1.000000 Se
   Se5        1.0     0.172190      0.000202      0.617590     Biso  1.000000 Se
   Se6        1.0     0.673033      0.500191      0.617272     Biso  1.000000 Se
   Se7        1.0     0.248445      0.750489      0.300007     Biso  1.000000 Se
   Se8        1.0     0.748464      0.250471      0.299992     Biso  1.000000 Se
   Se9        1.0     0.416566      0.751399      0.498354     Biso  1.000000 Se
   Se10       1.0     0.916461      0.251553      0.498443     Biso  1.000000 Se
   Se11       1.0     0.082435      0.247338      0.696550     Biso  1.000000 Se
   Se12       1.0     0.583822      0.743534      0.696928     Biso  1.000000 Se
   Se13       1.0     0.332259      0.501021      0.362098     Biso  1.000000 Se
   Se14       1.0     0.832267      0.001082      0.362087     Biso  1.000000 Se
   Se15       1.0     0.000406      0.001059      0.560459     Biso  1.000000 Se
   Se16       1.0     0.500387      0.501109      0.560350     Biso  1.000000 Se
   Se17       1.0     0.167326     -0.000337      0.760309     Biso  1.000000 Se
   Se18       1.0     0.674157      0.499545      0.759025     Biso  1.000000 Se
   Se19       1.0     0.335382      0.000469      0.221090     Biso  1.000000 Se
   Se20       1.0     0.835414      0.500458      0.221074     Biso  1.000000 Se
   Se21       1.0     0.002943      0.501231      0.419749     Biso  1.000000 Se
   Se22       1.0     0.502997      0.001151      0.419640     Biso  1.000000 Se
   Se23       1.0     0.168211      0.500315      0.616457     Biso  1.000000 Se
   Se24       1.0     0.670374      0.000279      0.618259     Biso  1.000000 Se
   Se25       1.0     0.248452      0.250438      0.300007     Biso  1.000000 Se
   Se26       1.0     0.748465      0.750471      0.299991     Biso  1.000000 Se
   Se27       1.0     0.416565      0.251478      0.498351     Biso  1.000000 Se
   Se28       1.0     0.916456      0.751530      0.498440     Biso  1.000000 Se
   Se29       1.0     0.082445      0.752006      0.696556     Biso  1.000000 Se
   Se30       1.0     0.583814      0.256283      0.696929     Biso  1.000000 Se
   Se31       1.0     0.332251      0.001018      0.362098     Biso  1.000000 Se
   Se32       1.0     0.832268      0.501084      0.362083     Biso  1.000000 Se
   Se33       1.0     0.999914      0.501164      0.560301     Biso  1.000000 Se
   Se34       1.0     0.500612      0.001207      0.560227     Biso  1.000000 Se
   Se35       1.0     0.169698      0.499722      0.758644     Biso  1.000000 Se
   Se36       1.0     0.668758     -0.000273      0.757881     Biso  1.000000 Se
   Se37       1.0     0.085236      0.750316      0.221144     Biso  1.000000 Se
   Se38       1.0     0.585209      0.250353      0.221147     Biso  1.000000 Se
   Se39       1.0     0.252928      0.751424      0.419708     Biso  1.000000 Se
   Se40       1.0     0.753059      0.251506      0.419674     Biso  1.000000 Se
   Se41       1.0     0.424121      0.754525      0.617075     Biso  1.000000 Se
   Se42       1.0     0.922663      0.251401      0.617509     Biso  1.000000 Se
   Se43       1.0     0.498324      0.500721      0.300042     Biso  1.000000 Se
   Se44       1.0     0.998338      0.000778      0.300036     Biso  1.000000 Se
   Se45       1.0     0.166343      0.001380      0.498469     Biso  1.000000 Se
   Se46       1.0     0.666383      0.501429      0.498416     Biso  1.000000 Se
   Se47       1.0     0.334440     -0.000198      0.696579     Biso  1.000000 Se
   Se48       1.0     0.835099      0.499791      0.696542     Biso  1.000000 Se
   Se49       1.0     0.082416      0.750625      0.362094     Biso  1.000000 Se
   Se50       1.0     0.582444      0.250646      0.362086     Biso  1.000000 Se
   Se51       1.0     0.250810      0.751168      0.560333     Biso  1.000000 Se
   Se52       1.0     0.750385      0.250978      0.560398     Biso  1.000000 Se
   Se53       1.0     0.419374      0.738584      0.756980     Biso  1.000000 Se
   Se54       1.0     0.919516      0.248863      0.759059     Biso  1.000000 Se
   Se55       1.0     0.085232      0.250315      0.221145     Biso  1.000000 Se
   Se56       1.0     0.585211      0.750345      0.221147     Biso  1.000000 Se
   Se57       1.0     0.252921      0.251393      0.419706     Biso  1.000000 Se
   Se58       1.0     0.753043      0.751436      0.419667     Biso  1.000000 Se
   Se59       1.0     0.424038      0.245953      0.617088     Biso  1.000000 Se
   Se60       1.0     0.922614      0.749107      0.617516     Biso  1.000000 Se
   Se61       1.0     0.498322      0.000709      0.300043     Biso  1.000000 Se
   Se62       1.0     0.998338      0.500798      0.300031     Biso  1.000000 Se
   Se63       1.0     0.166295      0.501360      0.498444     Biso  1.000000 Se
   Se64       1.0     0.666496      0.001325      0.498360     Biso  1.000000 Se
   Se65       1.0     0.311175      0.499869      0.692266     Biso  1.000000 Se
   Se66       1.0     0.835102     -0.000271      0.695453     Biso  1.000000 Se
   Se67       1.0     0.082410      0.250663      0.362093     Biso  1.000000 Se
   Se68       1.0     0.582442      0.750651      0.362086     Biso  1.000000 Se
   Se69       1.0     0.250802      0.251404      0.560341     Biso  1.000000 Se
   Se70       1.0     0.750384      0.751900      0.560411     Biso  1.000000 Se
   Se71       1.0     0.419344      0.260960      0.756977     Biso  1.000000 Se
   Se72       1.0     0.919481      0.750298      0.759056     Biso  1.000000 Se
   H1         1.0     0.745870      0.499669      0.781947     Biso  1.000000 H
