
#======================================================================
# CRYSTAL DATA
#----------------------------------------------------------------------
data_VESTA_phase_1

_chemical_name_common                  'CONTCAR                               '
_cell_length_a                         8.108300
_cell_length_b                         8.108300
_cell_length_c                         40.000000
_cell_angle_alpha                      90.000000
_cell_angle_beta                       90.000000
_cell_angle_gamma                      120.000000
_cell_volume                           2277.457405
_space_group_name_H-M_alt              'P 1'
_space_group_IT_number                 1

loop_
_space_group_symop_operation_xyz
   'x, y, z'

loop_
   _atom_site_label
   _atom_site_occupancy
   _atom_site_fract_x
   _atom_site_fract_y
   _atom_site_fract_z
   _atom_site_adp_type
   _atom_site_U_iso_or_equiv
   _atom_site_type_symbol
   Se1        1.0     0.500451     0.232896     0.267824    Uiso  ? Se
   Se2        1.0     0.334942     0.404163     0.341425    Uiso  ? Se
   Se3        1.0     0.488271     0.256563     0.439036    Uiso  ? Se
   Se4        1.0     0.168230     0.086717     0.508940    Uiso  ? Se
   Se5        1.0     0.002812     0.254247     0.583863    Uiso  ? Se
   Se6        1.0     0.173659     0.087970     0.679171    Uiso  ? Se
   Se7        1.0     0.992954     0.235246     0.268448    Uiso  ? Se
   Se8        1.0     0.836410     0.395623     0.346219    Uiso  ? Se
   Se9        1.0    -0.003196     0.248054     0.437302    Uiso  ? Se
   Se10       1.0     0.668824     0.087332     0.508643    Uiso  ? Se
   Se11       1.0     0.502829     0.253821     0.583864    Uiso  ? Se
   Se12       1.0     0.673702     0.088127     0.679219    Uiso  ? Se
   Se13       1.0     0.457835     0.771095     0.261934    Uiso  ? Se
   Se14       1.0     0.325328     0.905822     0.344485    Uiso  ? Se
   Se15       1.0     0.491195     0.753886     0.438262    Uiso  ? Se
   Se16       1.0     0.167619     0.586268     0.508668    Uiso  ? Se
   Se17       1.0     0.003273     0.754240     0.583861    Uiso  ? Se
   Se18       1.0     0.173616     0.588053     0.679219    Uiso  ? Se
   Se19       1.0     0.998054     0.729120     0.267788    Uiso  ? Se
   Se20       1.0     0.828549     0.898061     0.341403    Uiso  ? Se
   Se21       1.0    -0.011009     0.757153     0.439056    Uiso  ? Se
   Se22       1.0     0.667743     0.586968     0.508930    Uiso  ? Se
   Se23       1.0     0.502908     0.754297     0.583826    Uiso  ? Se
   Se24       1.0     0.673526     0.588076     0.679160    Uiso  ? Se
   In1        1.0     0.662006     0.070337     0.303697    Uiso  ? In
   In2        1.0     0.329215     0.426186     0.405401    Uiso  ? In
   In3        1.0     0.834919     0.420499     0.542614    Uiso  ? In
   In4        1.0     0.007100     0.254742     0.647659    Uiso  ? In
   In5        1.0     0.163845     0.065218     0.298850    Uiso  ? In
   In6        1.0     0.825409     0.420115     0.409947    Uiso  ? In
   In7        1.0     0.334883     0.420274     0.542610    Uiso  ? In
   In8        1.0     0.507159     0.254666     0.647631    Uiso  ? In
   In9        1.0     0.676978     0.553496     0.304680    Uiso  ? In
   In10       1.0     0.322761     0.922941     0.407804    Uiso  ? In
   In11       1.0     0.835175     0.920471     0.542588    Uiso  ? In
   In12       1.0     0.007019     0.754551     0.647630    Uiso  ? In
   In13       1.0     0.158744     0.565734     0.303657    Uiso  ? In
   In14       1.0     0.818955     0.915643     0.405408    Uiso  ? In
   In15       1.0     0.335490     0.920124     0.542426    Uiso  ? In
   In16       1.0     0.506944     0.754873     0.647636    Uiso  ? In
   O1         1.0     0.585446     0.648487     0.261491    Uiso  ? O
